version 2
run Scenario2_158B-0-20180428-21:46:03-6952
attr configname Scenario2_158B
attr datetime 20180428-21:46:03
attr experiment Scenario2_158B
attr inifile omnetpp.ini
attr iterationvars ""
attr iterationvarsf ""
attr measurement ""
attr network HighwayScenario1
attr processid 6952
attr repetition 0
attr replication #0
attr resultdir results
attr runnumber 0
attr seedset 0
param *.ambulanceNode[*].applType "\"AmbulanceAppLayer\""
param *.ambulanceNode[*].appl.messageLength 158
param *.ambulanceNode[*].appl.signDelay 0.0008
param *.ambulanceNode[*].appl.verifyDelay 0.0030
param *.node[*].applType "\"NormalAppLayer\""
param *.node[*].appl.messageLength 58
param *.node[*].appl.headerLength "80 bit"
param *.node[*].appl.sendBeacons true
param *.node[*].appl.dataOnSch false
param *.node[*].appl.beaconInterval 0.1s
param *.node[*].appl.signDelay 0.0008
param *.node[*].appl.verifyDelay 0.0030
param **.debug false
param **.coreDebug false
param *.playgroundSizeX 5500m
param *.playgroundSizeY 500m
param *.playgroundSizeZ 50m
param *.annotations.draw false
param *.obstacles.debug false
param *.manager.updateInterval 1s
param *.manager.host "\"localhost\""
param *.manager.port 9999
param *.manager.autoShutdown true
param *.manager.launchConfig "xmldoc(\"highway.launchd.xml\")"
param *.connectionManager.sendDirect true
param *.connectionManager.maxInterfDist 2600m
param *.connectionManager.drawMaxIntfDist false
param *.**.nic.mac1609_4.useServiceChannel false
param *.**.nic.mac1609_4.txPower 20mW
param *.**.nic.mac1609_4.bitrate 6Mbps
param *.**.nic.phy80211p.sensitivity -89dBm
param *.**.nic.phy80211p.useThermalNoise true
param *.**.nic.phy80211p.thermalNoise -110dBm
param *.**.nic.phy80211p.decider "xmldoc(\"config.xml\")"
param *.**.nic.phy80211p.analogueModels "xmldoc(\"config.xml\")"
param *.**.nic.phy80211p.usePropagationDelay true
param *.**.nic.phy80211p.antenna "xmldoc(\"antenna.xml\", \"/root/Antenna[@id='monopole']\")"
param *.manager.moduleType "\"ambulance=org.car2x.veins.nodes.Car attacker=org.car2x.veins.nodes.Car *=org.car2x.veins.nodes.Car\""
param *.manager.moduleName "\"ambulance=ambulanceNode attacker=attackerNode *=node\""
param *.node[*].veinsmobilityType.debug true
param *.node[*].veinsmobility.x 0
param *.node[*].veinsmobility.y 0
param *.node[*].veinsmobility.z 1.895
param *.ambulanceNode[*].veinsmobilityType.debug true
param *.ambulanceNode[*].veinsmobility.x 0
param *.ambulanceNode[*].veinsmobility.y 0
param *.ambulanceNode[*].veinsmobility.z 1.895
param *.attackerNode[*].veinsmobilityType.debug true
param *.attackerNode[*].veinsmobility.x 0
param *.attackerNode[*].veinsmobility.y 0
param *.attackerNode[*].veinsmobility.z 1.895

scalar HighwayScenario1.node[0].appl generatedWSMs 0
scalar HighwayScenario1.node[0].appl receivedWSMs 0
scalar HighwayScenario1.node[0].appl generatedBSMs 1500
scalar HighwayScenario1.node[0].appl receivedBSMs 4500
scalar HighwayScenario1.node[0].appl generatedWSAs 0
scalar HighwayScenario1.node[0].appl receivedWSAs 0
scalar HighwayScenario1.node[0].appl delayBSM_P1 0.00013626789435178
scalar HighwayScenario1.node[0].appl delayBSM_P2 0
scalar HighwayScenario1.node[0].nic.phy80211p busyTime 0.0038400000000002
scalar HighwayScenario1.node[0].nic.mac1609_4 ReceivedUnicastPackets 0
scalar HighwayScenario1.node[0].nic.mac1609_4 ReceivedBroadcasts 4500
scalar HighwayScenario1.node[0].nic.mac1609_4 SentPackets 1500
scalar HighwayScenario1.node[0].nic.mac1609_4 SNIRLostPackets 0
scalar HighwayScenario1.node[0].nic.mac1609_4 RXTXLostPackets 0
scalar HighwayScenario1.node[0].nic.mac1609_4 TotalLostPackets 0
scalar HighwayScenario1.node[0].nic.mac1609_4 DroppedPacketsInMac 0
scalar HighwayScenario1.node[0].nic.mac1609_4 TooLittleTime 0
scalar HighwayScenario1.node[0].nic.mac1609_4 TimesIntoBackoff 1500
scalar HighwayScenario1.node[0].nic.mac1609_4 SlotsBackoff 2306
scalar HighwayScenario1.node[0].nic.mac1609_4 NumInternalContention 0
scalar HighwayScenario1.node[0].nic.mac1609_4 totalBusyTime 0.7695
scalar HighwayScenario1.node[0].veinsmobility startTime 1
scalar HighwayScenario1.node[0].veinsmobility totalTime 149
scalar HighwayScenario1.node[0].veinsmobility stopTime 151
scalar HighwayScenario1.node[0].veinsmobility minSpeed 32.860070072164
scalar HighwayScenario1.node[0].veinsmobility maxSpeed 34.081829101013
scalar HighwayScenario1.node[0].veinsmobility totalDistance 4983.0096256411
scalar HighwayScenario1.node[0].veinsmobility totalCO2Emission 931.97440204326
scalar HighwayScenario1.node[1].appl generatedWSMs 0
scalar HighwayScenario1.node[1].appl receivedWSMs 0
scalar HighwayScenario1.node[1].appl generatedBSMs 1500
scalar HighwayScenario1.node[1].appl receivedBSMs 6000
scalar HighwayScenario1.node[1].appl generatedWSAs 0
scalar HighwayScenario1.node[1].appl receivedWSAs 0
scalar HighwayScenario1.node[1].appl delayBSM_P1 0.000136174482957
scalar HighwayScenario1.node[1].appl delayBSM_P2 0
scalar HighwayScenario1.node[1].nic.phy80211p busyTime 0.0051200000000004
scalar HighwayScenario1.node[1].nic.mac1609_4 ReceivedUnicastPackets 0
scalar HighwayScenario1.node[1].nic.mac1609_4 ReceivedBroadcasts 6000
scalar HighwayScenario1.node[1].nic.mac1609_4 SentPackets 1500
scalar HighwayScenario1.node[1].nic.mac1609_4 SNIRLostPackets 0
scalar HighwayScenario1.node[1].nic.mac1609_4 RXTXLostPackets 0
scalar HighwayScenario1.node[1].nic.mac1609_4 TotalLostPackets 0
scalar HighwayScenario1.node[1].nic.mac1609_4 DroppedPacketsInMac 0
scalar HighwayScenario1.node[1].nic.mac1609_4 TooLittleTime 0
scalar HighwayScenario1.node[1].nic.mac1609_4 TimesIntoBackoff 1500
scalar HighwayScenario1.node[1].nic.mac1609_4 SlotsBackoff 2284
scalar HighwayScenario1.node[1].nic.mac1609_4 NumInternalContention 0
scalar HighwayScenario1.node[1].nic.mac1609_4 totalBusyTime 0.9615
scalar HighwayScenario1.node[1].veinsmobility startTime 3
scalar HighwayScenario1.node[1].veinsmobility totalTime 149
scalar HighwayScenario1.node[1].veinsmobility stopTime 153
scalar HighwayScenario1.node[1].veinsmobility minSpeed 32.789757600441
scalar HighwayScenario1.node[1].veinsmobility maxSpeed 34.014829106492
scalar HighwayScenario1.node[1].veinsmobility totalDistance 4974.3580870107
scalar HighwayScenario1.node[1].veinsmobility totalCO2Emission 932.08951743864
scalar HighwayScenario1.node[2].appl generatedWSMs 0
scalar HighwayScenario1.node[2].appl receivedWSMs 0
scalar HighwayScenario1.node[2].appl generatedBSMs 1510
scalar HighwayScenario1.node[2].appl receivedBSMs 7840
scalar HighwayScenario1.node[2].appl generatedWSAs 0
scalar HighwayScenario1.node[2].appl receivedWSAs 0
scalar HighwayScenario1.node[2].appl delayBSM_P1 0.00013626233359541
scalar HighwayScenario1.node[2].appl delayBSM_P2 0
scalar HighwayScenario1.node[2].nic.phy80211p busyTime 0.0066458278145701
scalar HighwayScenario1.node[2].nic.mac1609_4 ReceivedUnicastPackets 0
scalar HighwayScenario1.node[2].nic.mac1609_4 ReceivedBroadcasts 7840
scalar HighwayScenario1.node[2].nic.mac1609_4 SentPackets 1510
scalar HighwayScenario1.node[2].nic.mac1609_4 SNIRLostPackets 0
scalar HighwayScenario1.node[2].nic.mac1609_4 RXTXLostPackets 0
scalar HighwayScenario1.node[2].nic.mac1609_4 TotalLostPackets 0
scalar HighwayScenario1.node[2].nic.mac1609_4 DroppedPacketsInMac 0
scalar HighwayScenario1.node[2].nic.mac1609_4 TooLittleTime 0
scalar HighwayScenario1.node[2].nic.mac1609_4 TimesIntoBackoff 1510
scalar HighwayScenario1.node[2].nic.mac1609_4 SlotsBackoff 2239
scalar HighwayScenario1.node[2].nic.mac1609_4 NumInternalContention 0
scalar HighwayScenario1.node[2].nic.mac1609_4 totalBusyTime 1.19831
scalar HighwayScenario1.node[2].veinsmobility startTime 5
scalar HighwayScenario1.node[2].veinsmobility totalTime 150
scalar HighwayScenario1.node[2].veinsmobility stopTime 156
scalar HighwayScenario1.node[2].veinsmobility minSpeed 32.558218552118
scalar HighwayScenario1.node[2].veinsmobility maxSpeed 33.766583233924
scalar HighwayScenario1.node[2].veinsmobility totalDistance 4977.0668563657
scalar HighwayScenario1.node[2].veinsmobility totalCO2Emission 913.59643265108
scalar HighwayScenario1.node[6].appl generatedWSMs 0
scalar HighwayScenario1.node[6].appl receivedWSMs 0
scalar HighwayScenario1.node[6].appl generatedBSMs 1480
scalar HighwayScenario1.node[6].appl receivedBSMs 12700
scalar HighwayScenario1.node[6].appl generatedWSAs 0
scalar HighwayScenario1.node[6].appl receivedWSAs 0
scalar HighwayScenario1.node[6].appl delayBSM_P1 0.00013620746410236
scalar HighwayScenario1.node[6].appl delayBSM_P2 0
scalar HighwayScenario1.node[6].nic.phy80211p busyTime 0.010983783783781
scalar HighwayScenario1.node[6].nic.mac1609_4 ReceivedUnicastPackets 0
scalar HighwayScenario1.node[6].nic.mac1609_4 ReceivedBroadcasts 12700
scalar HighwayScenario1.node[6].nic.mac1609_4 SentPackets 1480
scalar HighwayScenario1.node[6].nic.mac1609_4 SNIRLostPackets 0
scalar HighwayScenario1.node[6].nic.mac1609_4 RXTXLostPackets 0
scalar HighwayScenario1.node[6].nic.mac1609_4 TotalLostPackets 0
scalar HighwayScenario1.node[6].nic.mac1609_4 DroppedPacketsInMac 0
scalar HighwayScenario1.node[6].nic.mac1609_4 TooLittleTime 0
scalar HighwayScenario1.node[6].nic.mac1609_4 TimesIntoBackoff 1480
scalar HighwayScenario1.node[6].nic.mac1609_4 SlotsBackoff 2239
scalar HighwayScenario1.node[6].nic.mac1609_4 NumInternalContention 0
scalar HighwayScenario1.node[6].nic.mac1609_4 totalBusyTime 1.81652
scalar HighwayScenario1.node[6].veinsmobility startTime 13
scalar HighwayScenario1.node[6].veinsmobility totalTime 147
scalar HighwayScenario1.node[6].veinsmobility stopTime 161
scalar HighwayScenario1.node[6].veinsmobility minSpeed 30.203244476682
scalar HighwayScenario1.node[6].veinsmobility maxSpeed 36.033413916302
scalar HighwayScenario1.node[6].veinsmobility totalDistance 4967.806252512
scalar HighwayScenario1.node[6].veinsmobility totalCO2Emission 988.73916464985
scalar HighwayScenario1.node[5].appl generatedWSMs 0
scalar HighwayScenario1.node[5].appl receivedWSMs 0
scalar HighwayScenario1.node[5].appl generatedBSMs 1600
scalar HighwayScenario1.node[5].appl receivedBSMs 13580
scalar HighwayScenario1.node[5].appl generatedWSAs 0
scalar HighwayScenario1.node[5].appl receivedWSAs 0
scalar HighwayScenario1.node[5].appl delayBSM_P1 0.00013606161938726
scalar HighwayScenario1.node[5].appl delayBSM_P2 0
scalar HighwayScenario1.node[5].nic.phy80211p busyTime 0.010863999999997
scalar HighwayScenario1.node[5].nic.mac1609_4 ReceivedUnicastPackets 0
scalar HighwayScenario1.node[5].nic.mac1609_4 ReceivedBroadcasts 13580
scalar HighwayScenario1.node[5].nic.mac1609_4 SentPackets 1600
scalar HighwayScenario1.node[5].nic.mac1609_4 SNIRLostPackets 0
scalar HighwayScenario1.node[5].nic.mac1609_4 RXTXLostPackets 0
scalar HighwayScenario1.node[5].nic.mac1609_4 TotalLostPackets 0
scalar HighwayScenario1.node[5].nic.mac1609_4 DroppedPacketsInMac 0
scalar HighwayScenario1.node[5].nic.mac1609_4 TooLittleTime 0
scalar HighwayScenario1.node[5].nic.mac1609_4 TimesIntoBackoff 1600
scalar HighwayScenario1.node[5].nic.mac1609_4 SlotsBackoff 2451
scalar HighwayScenario1.node[5].nic.mac1609_4 NumInternalContention 0
scalar HighwayScenario1.node[5].nic.mac1609_4 totalBusyTime 1.94464
scalar HighwayScenario1.node[5].veinsmobility startTime 11
scalar HighwayScenario1.node[5].veinsmobility totalTime 159
scalar HighwayScenario1.node[5].veinsmobility stopTime 171
scalar HighwayScenario1.node[5].veinsmobility minSpeed 29.713738642236
scalar HighwayScenario1.node[5].veinsmobility maxSpeed 31.928955400918
scalar HighwayScenario1.node[5].veinsmobility totalDistance 4967.8819487356
scalar HighwayScenario1.node[5].veinsmobility totalCO2Emission 900.74029667534
scalar HighwayScenario1.node[3].appl generatedWSMs 0
scalar HighwayScenario1.node[3].appl receivedWSMs 0
scalar HighwayScenario1.node[3].appl generatedBSMs 1640
scalar HighwayScenario1.node[3].appl receivedBSMs 13450
scalar HighwayScenario1.node[3].appl generatedWSAs 0
scalar HighwayScenario1.node[3].appl receivedWSAs 0
scalar HighwayScenario1.node[3].appl delayBSM_P1 0.00013613297135108
scalar HighwayScenario1.node[3].appl delayBSM_P2 0
scalar HighwayScenario1.node[3].nic.phy80211p busyTime 0.010497560975607
scalar HighwayScenario1.node[3].nic.mac1609_4 ReceivedUnicastPackets 0
scalar HighwayScenario1.node[3].nic.mac1609_4 ReceivedBroadcasts 13450
scalar HighwayScenario1.node[3].nic.mac1609_4 SentPackets 1640
scalar HighwayScenario1.node[3].nic.mac1609_4 SNIRLostPackets 0
scalar HighwayScenario1.node[3].nic.mac1609_4 RXTXLostPackets 0
scalar HighwayScenario1.node[3].nic.mac1609_4 TotalLostPackets 0
scalar HighwayScenario1.node[3].nic.mac1609_4 DroppedPacketsInMac 0
scalar HighwayScenario1.node[3].nic.mac1609_4 TooLittleTime 0
scalar HighwayScenario1.node[3].nic.mac1609_4 TimesIntoBackoff 1640
scalar HighwayScenario1.node[3].nic.mac1609_4 SlotsBackoff 2410
scalar HighwayScenario1.node[3].nic.mac1609_4 NumInternalContention 0
scalar HighwayScenario1.node[3].nic.mac1609_4 totalBusyTime 1.93316
scalar HighwayScenario1.node[3].veinsmobility startTime 7
scalar HighwayScenario1.node[3].veinsmobility totalTime 163
scalar HighwayScenario1.node[3].veinsmobility stopTime 171
scalar HighwayScenario1.node[3].veinsmobility minSpeed 29.906596762299
scalar HighwayScenario1.node[3].veinsmobility maxSpeed 31.130142999751
scalar HighwayScenario1.node[3].veinsmobility totalDistance 4976.4571570921
scalar HighwayScenario1.node[3].veinsmobility totalCO2Emission 882.21316772775
scalar HighwayScenario1.node[9].appl generatedWSMs 0
scalar HighwayScenario1.node[9].appl receivedWSMs 0
scalar HighwayScenario1.node[9].appl generatedBSMs 1540
scalar HighwayScenario1.node[9].appl receivedBSMs 14370
scalar HighwayScenario1.node[9].appl generatedWSAs 0
scalar HighwayScenario1.node[9].appl receivedWSAs 0
scalar HighwayScenario1.node[9].appl delayBSM_P1 0.0001360678109826
scalar HighwayScenario1.node[9].appl delayBSM_P2 0
scalar HighwayScenario1.node[9].nic.phy80211p busyTime 0.011943896103893
scalar HighwayScenario1.node[9].nic.mac1609_4 ReceivedUnicastPackets 0
scalar HighwayScenario1.node[9].nic.mac1609_4 ReceivedBroadcasts 14370
scalar HighwayScenario1.node[9].nic.mac1609_4 SentPackets 1540
scalar HighwayScenario1.node[9].nic.mac1609_4 SNIRLostPackets 0
scalar HighwayScenario1.node[9].nic.mac1609_4 RXTXLostPackets 0
scalar HighwayScenario1.node[9].nic.mac1609_4 TotalLostPackets 0
scalar HighwayScenario1.node[9].nic.mac1609_4 DroppedPacketsInMac 0
scalar HighwayScenario1.node[9].nic.mac1609_4 TooLittleTime 0
scalar HighwayScenario1.node[9].nic.mac1609_4 TimesIntoBackoff 1540
scalar HighwayScenario1.node[9].nic.mac1609_4 SlotsBackoff 2314
scalar HighwayScenario1.node[9].nic.mac1609_4 NumInternalContention 0
scalar HighwayScenario1.node[9].nic.mac1609_4 totalBusyTime 2.03802
scalar HighwayScenario1.node[9].veinsmobility startTime 19
scalar HighwayScenario1.node[9].veinsmobility totalTime 153
scalar HighwayScenario1.node[9].veinsmobility stopTime 173
scalar HighwayScenario1.node[9].veinsmobility minSpeed 30.37993461178
scalar HighwayScenario1.node[9].veinsmobility maxSpeed 33.710887097781
scalar HighwayScenario1.node[9].veinsmobility totalDistance 4990.0083315423
scalar HighwayScenario1.node[9].veinsmobility totalCO2Emission 922.49631652614
scalar HighwayScenario1.node[7].appl generatedWSMs 0
scalar HighwayScenario1.node[7].appl receivedWSMs 0
scalar HighwayScenario1.node[7].appl generatedBSMs 1610
scalar HighwayScenario1.node[7].appl receivedBSMs 16170
scalar HighwayScenario1.node[7].appl generatedWSAs 0
scalar HighwayScenario1.node[7].appl receivedWSAs 0
scalar HighwayScenario1.node[7].appl delayBSM_P1 0.00013613499060519
scalar HighwayScenario1.node[7].appl delayBSM_P2 0
scalar HighwayScenario1.node[7].nic.phy80211p busyTime 0.012855652173909
scalar HighwayScenario1.node[7].nic.mac1609_4 ReceivedUnicastPackets 0
scalar HighwayScenario1.node[7].nic.mac1609_4 ReceivedBroadcasts 16170
scalar HighwayScenario1.node[7].nic.mac1609_4 SentPackets 1610
scalar HighwayScenario1.node[7].nic.mac1609_4 SNIRLostPackets 0
scalar HighwayScenario1.node[7].nic.mac1609_4 RXTXLostPackets 0
scalar HighwayScenario1.node[7].nic.mac1609_4 TotalLostPackets 0
scalar HighwayScenario1.node[7].nic.mac1609_4 DroppedPacketsInMac 0
scalar HighwayScenario1.node[7].nic.mac1609_4 TooLittleTime 0
scalar HighwayScenario1.node[7].nic.mac1609_4 TimesIntoBackoff 1610
scalar HighwayScenario1.node[7].nic.mac1609_4 SlotsBackoff 2436
scalar HighwayScenario1.node[7].nic.mac1609_4 NumInternalContention 0
scalar HighwayScenario1.node[7].nic.mac1609_4 totalBusyTime 2.27745
scalar HighwayScenario1.node[7].veinsmobility startTime 15
scalar HighwayScenario1.node[7].veinsmobility totalTime 160
scalar HighwayScenario1.node[7].veinsmobility stopTime 176
scalar HighwayScenario1.node[7].veinsmobility minSpeed 29.911833632346
scalar HighwayScenario1.node[7].veinsmobility maxSpeed 31.799890142991
scalar HighwayScenario1.node[7].veinsmobility totalDistance 4985.1426244425
scalar HighwayScenario1.node[7].veinsmobility totalCO2Emission 884.31136184081
scalar HighwayScenario1.node[4].appl generatedWSMs 0
scalar HighwayScenario1.node[4].appl receivedWSMs 0
scalar HighwayScenario1.node[4].appl generatedBSMs 1670
scalar HighwayScenario1.node[4].appl receivedBSMs 15140
scalar HighwayScenario1.node[4].appl generatedWSAs 0
scalar HighwayScenario1.node[4].appl receivedWSAs 0
scalar HighwayScenario1.node[4].appl delayBSM_P1 0.00013612952060291
scalar HighwayScenario1.node[4].appl delayBSM_P2 0
scalar HighwayScenario1.node[4].nic.phy80211p busyTime 0.011604311377242
scalar HighwayScenario1.node[4].nic.mac1609_4 ReceivedUnicastPackets 0
scalar HighwayScenario1.node[4].nic.mac1609_4 ReceivedBroadcasts 15140
scalar HighwayScenario1.node[4].nic.mac1609_4 SentPackets 1670
scalar HighwayScenario1.node[4].nic.mac1609_4 SNIRLostPackets 0
scalar HighwayScenario1.node[4].nic.mac1609_4 RXTXLostPackets 0
scalar HighwayScenario1.node[4].nic.mac1609_4 TotalLostPackets 0
scalar HighwayScenario1.node[4].nic.mac1609_4 DroppedPacketsInMac 0
scalar HighwayScenario1.node[4].nic.mac1609_4 TooLittleTime 0
scalar HighwayScenario1.node[4].nic.mac1609_4 TimesIntoBackoff 1670
scalar HighwayScenario1.node[4].nic.mac1609_4 SlotsBackoff 2491
scalar HighwayScenario1.node[4].nic.mac1609_4 NumInternalContention 0
scalar HighwayScenario1.node[4].nic.mac1609_4 totalBusyTime 2.15335
scalar HighwayScenario1.node[4].veinsmobility startTime 9
scalar HighwayScenario1.node[4].veinsmobility totalTime 166
scalar HighwayScenario1.node[4].veinsmobility stopTime 176
scalar HighwayScenario1.node[4].veinsmobility minSpeed 28.930550184644
scalar HighwayScenario1.node[4].veinsmobility maxSpeed 30.550408622643
scalar HighwayScenario1.node[4].veinsmobility totalDistance 4964.5907311441
scalar HighwayScenario1.node[4].veinsmobility totalCO2Emission 861.68014215537
scalar HighwayScenario1.node[16].appl generatedWSMs 0
scalar HighwayScenario1.node[16].appl receivedWSMs 0
scalar HighwayScenario1.node[16].appl generatedBSMs 1440
scalar HighwayScenario1.node[16].appl receivedBSMs 16910
scalar HighwayScenario1.node[16].appl generatedWSAs 0
scalar HighwayScenario1.node[16].appl receivedWSAs 0
scalar HighwayScenario1.node[16].appl delayBSM_P1 0.00013614471290875
scalar HighwayScenario1.node[16].appl delayBSM_P2 0
scalar HighwayScenario1.node[16].nic.phy80211p busyTime 0.015031111111108
scalar HighwayScenario1.node[16].nic.mac1609_4 ReceivedUnicastPackets 0
scalar HighwayScenario1.node[16].nic.mac1609_4 ReceivedBroadcasts 16910
scalar HighwayScenario1.node[16].nic.mac1609_4 SentPackets 1440
scalar HighwayScenario1.node[16].nic.mac1609_4 SNIRLostPackets 0
scalar HighwayScenario1.node[16].nic.mac1609_4 RXTXLostPackets 0
scalar HighwayScenario1.node[16].nic.mac1609_4 TotalLostPackets 0
scalar HighwayScenario1.node[16].nic.mac1609_4 DroppedPacketsInMac 0
scalar HighwayScenario1.node[16].nic.mac1609_4 TooLittleTime 0
scalar HighwayScenario1.node[16].nic.mac1609_4 TimesIntoBackoff 1440
scalar HighwayScenario1.node[16].nic.mac1609_4 SlotsBackoff 2184
scalar HighwayScenario1.node[16].nic.mac1609_4 NumInternalContention 0
scalar HighwayScenario1.node[16].nic.mac1609_4 totalBusyTime 2.35024
scalar HighwayScenario1.node[16].veinsmobility startTime 33
scalar HighwayScenario1.node[16].veinsmobility totalTime 143
scalar HighwayScenario1.node[16].veinsmobility stopTime 177
scalar HighwayScenario1.node[16].veinsmobility minSpeed 30.415606287603
scalar HighwayScenario1.node[16].veinsmobility maxSpeed 35.786368328478
scalar HighwayScenario1.node[16].veinsmobility totalDistance 4971.7482020769
scalar HighwayScenario1.node[16].veinsmobility totalCO2Emission 939.60771463742
scalar HighwayScenario1.node[12].appl generatedWSMs 0
scalar HighwayScenario1.node[12].appl receivedWSMs 0
scalar HighwayScenario1.node[12].appl generatedBSMs 1530
scalar HighwayScenario1.node[12].appl receivedBSMs 19330
scalar HighwayScenario1.node[12].appl generatedWSAs 0
scalar HighwayScenario1.node[12].appl receivedWSAs 0
scalar HighwayScenario1.node[12].appl delayBSM_P1 0.00013624052251614
scalar HighwayScenario1.node[12].appl delayBSM_P2 0
scalar HighwayScenario1.node[12].nic.phy80211p busyTime 0.016171503267973
scalar HighwayScenario1.node[12].nic.mac1609_4 ReceivedUnicastPackets 0
scalar HighwayScenario1.node[12].nic.mac1609_4 ReceivedBroadcasts 19330
scalar HighwayScenario1.node[12].nic.mac1609_4 SentPackets 1530
scalar HighwayScenario1.node[12].nic.mac1609_4 SNIRLostPackets 0
scalar HighwayScenario1.node[12].nic.mac1609_4 RXTXLostPackets 0
scalar HighwayScenario1.node[12].nic.mac1609_4 TotalLostPackets 0
scalar HighwayScenario1.node[12].nic.mac1609_4 DroppedPacketsInMac 0
scalar HighwayScenario1.node[12].nic.mac1609_4 TooLittleTime 0
scalar HighwayScenario1.node[12].nic.mac1609_4 TimesIntoBackoff 1530
scalar HighwayScenario1.node[12].nic.mac1609_4 SlotsBackoff 2234
scalar HighwayScenario1.node[12].nic.mac1609_4 NumInternalContention 0
scalar HighwayScenario1.node[12].nic.mac1609_4 totalBusyTime 2.67161
scalar HighwayScenario1.node[12].veinsmobility startTime 25
scalar HighwayScenario1.node[12].veinsmobility totalTime 152
scalar HighwayScenario1.node[12].veinsmobility stopTime 178
scalar HighwayScenario1.node[12].veinsmobility minSpeed 29.198945132345
scalar HighwayScenario1.node[12].veinsmobility maxSpeed 34.599351722425
scalar HighwayScenario1.node[12].veinsmobility totalDistance 4985.9582867659
scalar HighwayScenario1.node[12].veinsmobility totalCO2Emission 962.62345832956
scalar HighwayScenario1.ambulanceNode[36].appl generatedWSMs 108
scalar HighwayScenario1.ambulanceNode[36].appl receivedWSMs 0
scalar HighwayScenario1.ambulanceNode[36].appl generatedBSMs 0
scalar HighwayScenario1.ambulanceNode[36].appl receivedBSMs 8135
scalar HighwayScenario1.ambulanceNode[36].appl generatedWSAs 0
scalar HighwayScenario1.ambulanceNode[36].appl receivedWSAs 0
scalar HighwayScenario1.ambulanceNode[36].nic.phy80211p busyTime 0.009730126208315
scalar HighwayScenario1.ambulanceNode[36].nic.mac1609_4 ReceivedUnicastPackets 0
scalar HighwayScenario1.ambulanceNode[36].nic.mac1609_4 ReceivedBroadcasts 8135
scalar HighwayScenario1.ambulanceNode[36].nic.mac1609_4 SentPackets 108
scalar HighwayScenario1.ambulanceNode[36].nic.mac1609_4 SNIRLostPackets 82
scalar HighwayScenario1.ambulanceNode[36].nic.mac1609_4 RXTXLostPackets 0
scalar HighwayScenario1.ambulanceNode[36].nic.mac1609_4 TotalLostPackets 82
scalar HighwayScenario1.ambulanceNode[36].nic.mac1609_4 DroppedPacketsInMac 0
scalar HighwayScenario1.ambulanceNode[36].nic.mac1609_4 TooLittleTime 0
scalar HighwayScenario1.ambulanceNode[36].nic.mac1609_4 TimesIntoBackoff 108
scalar HighwayScenario1.ambulanceNode[36].nic.mac1609_4 SlotsBackoff 174
scalar HighwayScenario1.ambulanceNode[36].nic.mac1609_4 NumInternalContention 0
scalar HighwayScenario1.ambulanceNode[36].nic.mac1609_4 totalBusyTime 1.079532
scalar HighwayScenario1.ambulanceNode[36].veinsmobility startTime 72
scalar HighwayScenario1.ambulanceNode[36].veinsmobility totalTime 108
scalar HighwayScenario1.ambulanceNode[36].veinsmobility stopTime 180.09479522488
scalar HighwayScenario1.ambulanceNode[36].veinsmobility minSpeed 28.190659158669
scalar HighwayScenario1.ambulanceNode[36].veinsmobility maxSpeed 49.938699318562
scalar HighwayScenario1.ambulanceNode[36].veinsmobility totalDistance 4604.1118006992
scalar HighwayScenario1.ambulanceNode[36].veinsmobility totalCO2Emission 1632.4853133122
scalar HighwayScenario1.node[10].appl generatedWSMs 0
scalar HighwayScenario1.node[10].appl receivedWSMs 18
scalar HighwayScenario1.node[10].appl generatedBSMs 1591
scalar HighwayScenario1.node[10].appl receivedBSMs 19205
scalar HighwayScenario1.node[10].appl generatedWSAs 0
scalar HighwayScenario1.node[10].appl receivedWSAs 0
scalar HighwayScenario1.node[10].appl delayBSM_P1 0.00013614579540953
scalar HighwayScenario1.node[10].appl delayBSM_P2 0.00026445732283333
scalar HighwayScenario1.node[10].nic.phy80211p busyTime 0.015480380715903
scalar HighwayScenario1.node[10].nic.mac1609_4 ReceivedUnicastPackets 0
scalar HighwayScenario1.node[10].nic.mac1609_4 ReceivedBroadcasts 19223
scalar HighwayScenario1.node[10].nic.mac1609_4 SentPackets 1591
scalar HighwayScenario1.node[10].nic.mac1609_4 SNIRLostPackets 0
scalar HighwayScenario1.node[10].nic.mac1609_4 RXTXLostPackets 0
scalar HighwayScenario1.node[10].nic.mac1609_4 TotalLostPackets 0
scalar HighwayScenario1.node[10].nic.mac1609_4 DroppedPacketsInMac 0
scalar HighwayScenario1.node[10].nic.mac1609_4 TooLittleTime 0
scalar HighwayScenario1.node[10].nic.mac1609_4 TimesIntoBackoff 1591
scalar HighwayScenario1.node[10].nic.mac1609_4 SlotsBackoff 2427
scalar HighwayScenario1.node[10].nic.mac1609_4 NumInternalContention 0
scalar HighwayScenario1.node[10].nic.mac1609_4 totalBusyTime 2.668087
scalar HighwayScenario1.node[10].veinsmobility startTime 21
scalar HighwayScenario1.node[10].veinsmobility totalTime 159
scalar HighwayScenario1.node[10].veinsmobility stopTime 180.09479522488
scalar HighwayScenario1.node[10].veinsmobility minSpeed 28.740059746977
scalar HighwayScenario1.node[10].veinsmobility maxSpeed 30.298711198061
scalar HighwayScenario1.node[10].veinsmobility totalDistance 4719.1696539355
scalar HighwayScenario1.node[10].veinsmobility totalCO2Emission 804.80276346843
scalar HighwayScenario1.node[11].appl generatedWSMs 0
scalar HighwayScenario1.node[11].appl receivedWSMs 20
scalar HighwayScenario1.node[11].appl generatedBSMs 1571
scalar HighwayScenario1.node[11].appl receivedBSMs 17005
scalar HighwayScenario1.node[11].appl generatedWSAs 0
scalar HighwayScenario1.node[11].appl receivedWSAs 0
scalar HighwayScenario1.node[11].appl delayBSM_P1 0.0001360978546905
scalar HighwayScenario1.node[11].appl delayBSM_P2 0.0002641683638
scalar HighwayScenario1.node[11].nic.phy80211p busyTime 0.013888174951158
scalar HighwayScenario1.node[11].nic.mac1609_4 ReceivedUnicastPackets 0
scalar HighwayScenario1.node[11].nic.mac1609_4 ReceivedBroadcasts 17025
scalar HighwayScenario1.node[11].nic.mac1609_4 SentPackets 1571
scalar HighwayScenario1.node[11].nic.mac1609_4 SNIRLostPackets 0
scalar HighwayScenario1.node[11].nic.mac1609_4 RXTXLostPackets 0
scalar HighwayScenario1.node[11].nic.mac1609_4 TotalLostPackets 0
scalar HighwayScenario1.node[11].nic.mac1609_4 DroppedPacketsInMac 0
scalar HighwayScenario1.node[11].nic.mac1609_4 TooLittleTime 0
scalar HighwayScenario1.node[11].nic.mac1609_4 TimesIntoBackoff 1571
scalar HighwayScenario1.node[11].nic.mac1609_4 SlotsBackoff 2371
scalar HighwayScenario1.node[11].nic.mac1609_4 NumInternalContention 0
scalar HighwayScenario1.node[11].nic.mac1609_4 totalBusyTime 2.384419
scalar HighwayScenario1.node[11].veinsmobility startTime 23
scalar HighwayScenario1.node[11].veinsmobility totalTime 157
scalar HighwayScenario1.node[11].veinsmobility stopTime 180.09479522488
scalar HighwayScenario1.node[11].veinsmobility minSpeed 28.606829378782
scalar HighwayScenario1.node[11].veinsmobility maxSpeed 30.639867577736
scalar HighwayScenario1.node[11].veinsmobility totalDistance 4678.9313452904
scalar HighwayScenario1.node[11].veinsmobility totalCO2Emission 838.58989067667
scalar HighwayScenario1.node[13].appl generatedWSMs 0
scalar HighwayScenario1.node[13].appl receivedWSMs 16
scalar HighwayScenario1.node[13].appl generatedBSMs 1531
scalar HighwayScenario1.node[13].appl receivedBSMs 17125
scalar HighwayScenario1.node[13].appl generatedWSAs 0
scalar HighwayScenario1.node[13].appl receivedWSAs 0
scalar HighwayScenario1.node[13].appl delayBSM_P1 0.00013609977421886
scalar HighwayScenario1.node[13].appl delayBSM_P2 0.0002645872839375
scalar HighwayScenario1.node[13].nic.phy80211p busyTime 0.014344680998291
scalar HighwayScenario1.node[13].nic.mac1609_4 ReceivedUnicastPackets 0
scalar HighwayScenario1.node[13].nic.mac1609_4 ReceivedBroadcasts 17141
scalar HighwayScenario1.node[13].nic.mac1609_4 SentPackets 1531
scalar HighwayScenario1.node[13].nic.mac1609_4 SNIRLostPackets 0
scalar HighwayScenario1.node[13].nic.mac1609_4 RXTXLostPackets 0
scalar HighwayScenario1.node[13].nic.mac1609_4 TotalLostPackets 0
scalar HighwayScenario1.node[13].nic.mac1609_4 DroppedPacketsInMac 0
scalar HighwayScenario1.node[13].nic.mac1609_4 TooLittleTime 0
scalar HighwayScenario1.node[13].nic.mac1609_4 TimesIntoBackoff 1531
scalar HighwayScenario1.node[13].nic.mac1609_4 SlotsBackoff 2311
scalar HighwayScenario1.node[13].nic.mac1609_4 NumInternalContention 0
scalar HighwayScenario1.node[13].nic.mac1609_4 totalBusyTime 2.393595
scalar HighwayScenario1.node[13].veinsmobility startTime 27
scalar HighwayScenario1.node[13].veinsmobility totalTime 153
scalar HighwayScenario1.node[13].veinsmobility stopTime 180.09479522488
scalar HighwayScenario1.node[13].veinsmobility minSpeed 28.32464243223
scalar HighwayScenario1.node[13].veinsmobility maxSpeed 32.133856886756
scalar HighwayScenario1.node[13].veinsmobility totalDistance 4790.7500977815
scalar HighwayScenario1.node[13].veinsmobility totalCO2Emission 884.7162252076
scalar HighwayScenario1.node[14].appl generatedWSMs 0
scalar HighwayScenario1.node[14].appl receivedWSMs 22
scalar HighwayScenario1.node[14].appl generatedBSMs 1510
scalar HighwayScenario1.node[14].appl receivedBSMs 14837
scalar HighwayScenario1.node[14].appl generatedWSAs 0
scalar HighwayScenario1.node[14].appl receivedWSAs 0
scalar HighwayScenario1.node[14].appl delayBSM_P1 0.00013605820094055
scalar HighwayScenario1.node[14].appl delayBSM_P2 0.00026380498036364
scalar HighwayScenario1.node[14].nic.phy80211p busyTime 0.012606443505645
scalar HighwayScenario1.node[14].nic.mac1609_4 ReceivedUnicastPackets 0
scalar HighwayScenario1.node[14].nic.mac1609_4 ReceivedBroadcasts 14859
scalar HighwayScenario1.node[14].nic.mac1609_4 SentPackets 1510
scalar HighwayScenario1.node[14].nic.mac1609_4 SNIRLostPackets 0
scalar HighwayScenario1.node[14].nic.mac1609_4 RXTXLostPackets 0
scalar HighwayScenario1.node[14].nic.mac1609_4 TotalLostPackets 0
scalar HighwayScenario1.node[14].nic.mac1609_4 DroppedPacketsInMac 0
scalar HighwayScenario1.node[14].nic.mac1609_4 TooLittleTime 0
scalar HighwayScenario1.node[14].nic.mac1609_4 TimesIntoBackoff 1510
scalar HighwayScenario1.node[14].nic.mac1609_4 SlotsBackoff 2266
scalar HighwayScenario1.node[14].nic.mac1609_4 NumInternalContention 0
scalar HighwayScenario1.node[14].nic.mac1609_4 totalBusyTime 2.099558
scalar HighwayScenario1.node[14].veinsmobility startTime 29
scalar HighwayScenario1.node[14].veinsmobility totalTime 151
scalar HighwayScenario1.node[14].veinsmobility stopTime 180.09479522488
scalar HighwayScenario1.node[14].veinsmobility minSpeed 0.45598578461867
scalar HighwayScenario1.node[14].veinsmobility maxSpeed 32.036993257076
scalar HighwayScenario1.node[14].veinsmobility totalDistance 4544.6870748347
scalar HighwayScenario1.node[14].veinsmobility totalCO2Emission 867.94425514187
scalar HighwayScenario1.node[15].appl generatedWSMs 0
scalar HighwayScenario1.node[15].appl receivedWSMs 24
scalar HighwayScenario1.node[15].appl generatedBSMs 1491
scalar HighwayScenario1.node[15].appl receivedBSMs 14266
scalar HighwayScenario1.node[15].appl generatedWSAs 0
scalar HighwayScenario1.node[15].appl receivedWSAs 0
scalar HighwayScenario1.node[15].appl delayBSM_P1 0.00013610312755026
scalar HighwayScenario1.node[15].appl delayBSM_P2 0.00026348161383333
scalar HighwayScenario1.node[15].nic.phy80211p busyTime 0.012288772369525
scalar HighwayScenario1.node[15].nic.mac1609_4 ReceivedUnicastPackets 0
scalar HighwayScenario1.node[15].nic.mac1609_4 ReceivedBroadcasts 14290
scalar HighwayScenario1.node[15].nic.mac1609_4 SentPackets 1491
scalar HighwayScenario1.node[15].nic.mac1609_4 SNIRLostPackets 0
scalar HighwayScenario1.node[15].nic.mac1609_4 RXTXLostPackets 0
scalar HighwayScenario1.node[15].nic.mac1609_4 TotalLostPackets 0
scalar HighwayScenario1.node[15].nic.mac1609_4 DroppedPacketsInMac 0
scalar HighwayScenario1.node[15].nic.mac1609_4 TooLittleTime 0
scalar HighwayScenario1.node[15].nic.mac1609_4 TimesIntoBackoff 1491
scalar HighwayScenario1.node[15].nic.mac1609_4 SlotsBackoff 2236
scalar HighwayScenario1.node[15].nic.mac1609_4 NumInternalContention 0
scalar HighwayScenario1.node[15].nic.mac1609_4 totalBusyTime 2.024531
scalar HighwayScenario1.node[15].veinsmobility startTime 31
scalar HighwayScenario1.node[15].veinsmobility totalTime 149
scalar HighwayScenario1.node[15].veinsmobility stopTime 180.09479522488
scalar HighwayScenario1.node[15].veinsmobility minSpeed 3.9510373345106
scalar HighwayScenario1.node[15].veinsmobility maxSpeed 32.236885038166
scalar HighwayScenario1.node[15].veinsmobility totalDistance 4593.989314041
scalar HighwayScenario1.node[15].veinsmobility totalCO2Emission 832.75276383624
scalar HighwayScenario1.node[17].appl generatedWSMs 0
scalar HighwayScenario1.node[17].appl receivedWSMs 19
scalar HighwayScenario1.node[17].appl generatedBSMs 1451
scalar HighwayScenario1.node[17].appl receivedBSMs 14905
scalar HighwayScenario1.node[17].appl generatedWSAs 0
scalar HighwayScenario1.node[17].appl receivedWSAs 0
scalar HighwayScenario1.node[17].appl delayBSM_P1 0.00013608748292788
scalar HighwayScenario1.node[17].appl delayBSM_P2 0.00026440567063158
scalar HighwayScenario1.node[17].nic.phy80211p busyTime 0.013341236651523
scalar HighwayScenario1.node[17].nic.mac1609_4 ReceivedUnicastPackets 0
scalar HighwayScenario1.node[17].nic.mac1609_4 ReceivedBroadcasts 14924
scalar HighwayScenario1.node[17].nic.mac1609_4 SentPackets 1451
scalar HighwayScenario1.node[17].nic.mac1609_4 SNIRLostPackets 180
scalar HighwayScenario1.node[17].nic.mac1609_4 RXTXLostPackets 0
scalar HighwayScenario1.node[17].nic.mac1609_4 TotalLostPackets 180
scalar HighwayScenario1.node[17].nic.mac1609_4 DroppedPacketsInMac 0
scalar HighwayScenario1.node[17].nic.mac1609_4 TooLittleTime 0
scalar HighwayScenario1.node[17].nic.mac1609_4 TimesIntoBackoff 1451
scalar HighwayScenario1.node[17].nic.mac1609_4 SlotsBackoff 2177
scalar HighwayScenario1.node[17].nic.mac1609_4 NumInternalContention 0
scalar HighwayScenario1.node[17].nic.mac1609_4 totalBusyTime 2.099883
scalar HighwayScenario1.node[17].veinsmobility startTime 35
scalar HighwayScenario1.node[17].veinsmobility totalTime 145
scalar HighwayScenario1.node[17].veinsmobility stopTime 180.09479522488
scalar HighwayScenario1.node[17].veinsmobility minSpeed 30.315159037981
scalar HighwayScenario1.node[17].veinsmobility maxSpeed 34.490047262826
scalar HighwayScenario1.node[17].veinsmobility totalDistance 4792.2454614495
scalar HighwayScenario1.node[17].veinsmobility totalCO2Emission 914.3466140788
scalar HighwayScenario1.node[18].appl generatedWSMs 0
scalar HighwayScenario1.node[18].appl receivedWSMs 21
scalar HighwayScenario1.node[18].appl generatedBSMs 1430
scalar HighwayScenario1.node[18].appl receivedBSMs 14295
scalar HighwayScenario1.node[18].appl generatedWSAs 0
scalar HighwayScenario1.node[18].appl receivedWSAs 0
scalar HighwayScenario1.node[18].appl delayBSM_P1 0.000136112694746
scalar HighwayScenario1.node[18].appl delayBSM_P2 0.00026425216980952
scalar HighwayScenario1.node[18].nic.phy80211p busyTime 0.013156481317443
scalar HighwayScenario1.node[18].nic.mac1609_4 ReceivedUnicastPackets 0
scalar HighwayScenario1.node[18].nic.mac1609_4 ReceivedBroadcasts 14316
scalar HighwayScenario1.node[18].nic.mac1609_4 SentPackets 1430
scalar HighwayScenario1.node[18].nic.mac1609_4 SNIRLostPackets 371
scalar HighwayScenario1.node[18].nic.mac1609_4 RXTXLostPackets 0
scalar HighwayScenario1.node[18].nic.mac1609_4 TotalLostPackets 371
scalar HighwayScenario1.node[18].nic.mac1609_4 DroppedPacketsInMac 0
scalar HighwayScenario1.node[18].nic.mac1609_4 TooLittleTime 0
scalar HighwayScenario1.node[18].nic.mac1609_4 TimesIntoBackoff 1430
scalar HighwayScenario1.node[18].nic.mac1609_4 SlotsBackoff 2158
scalar HighwayScenario1.node[18].nic.mac1609_4 NumInternalContention 0
scalar HighwayScenario1.node[18].nic.mac1609_4 totalBusyTime 2.027414
scalar HighwayScenario1.node[18].veinsmobility startTime 37
scalar HighwayScenario1.node[18].veinsmobility totalTime 143
scalar HighwayScenario1.node[18].veinsmobility stopTime 180.09479522488
scalar HighwayScenario1.node[18].veinsmobility minSpeed 30.265674523564
scalar HighwayScenario1.node[18].veinsmobility maxSpeed 34.880321350713
scalar HighwayScenario1.node[18].veinsmobility totalDistance 4748.1232210456
scalar HighwayScenario1.node[18].veinsmobility totalCO2Emission 942.11101563645
scalar HighwayScenario1.node[19].appl generatedWSMs 0
scalar HighwayScenario1.node[19].appl receivedWSMs 36
scalar HighwayScenario1.node[19].appl generatedBSMs 1411
scalar HighwayScenario1.node[19].appl receivedBSMs 13367
scalar HighwayScenario1.node[19].appl generatedWSAs 0
scalar HighwayScenario1.node[19].appl receivedWSAs 0
scalar HighwayScenario1.node[19].appl delayBSM_P1 0.00013922098417835
scalar HighwayScenario1.node[19].appl delayBSM_P2 0.00026422959411111
scalar HighwayScenario1.node[19].nic.phy80211p busyTime 0.012891191323539
scalar HighwayScenario1.node[19].nic.mac1609_4 ReceivedUnicastPackets 0
scalar HighwayScenario1.node[19].nic.mac1609_4 ReceivedBroadcasts 13403
scalar HighwayScenario1.node[19].nic.mac1609_4 SentPackets 1411
scalar HighwayScenario1.node[19].nic.mac1609_4 SNIRLostPackets 771
scalar HighwayScenario1.node[19].nic.mac1609_4 RXTXLostPackets 0
scalar HighwayScenario1.node[19].nic.mac1609_4 TotalLostPackets 771
scalar HighwayScenario1.node[19].nic.mac1609_4 DroppedPacketsInMac 0
scalar HighwayScenario1.node[19].nic.mac1609_4 TooLittleTime 0
scalar HighwayScenario1.node[19].nic.mac1609_4 TimesIntoBackoff 1411
scalar HighwayScenario1.node[19].nic.mac1609_4 SlotsBackoff 2061
scalar HighwayScenario1.node[19].nic.mac1609_4 NumInternalContention 0
scalar HighwayScenario1.node[19].nic.mac1609_4 totalBusyTime 1.956099
scalar HighwayScenario1.node[19].veinsmobility startTime 39
scalar HighwayScenario1.node[19].veinsmobility totalTime 141
scalar HighwayScenario1.node[19].veinsmobility stopTime 180.09479522488
scalar HighwayScenario1.node[19].veinsmobility minSpeed 0
scalar HighwayScenario1.node[19].veinsmobility maxSpeed 27.554096394501
scalar HighwayScenario1.node[19].veinsmobility totalDistance 2494.4933142431
scalar HighwayScenario1.node[19].veinsmobility totalCO2Emission 476.8150388867
scalar HighwayScenario1.node[20].appl generatedWSMs 0
scalar HighwayScenario1.node[20].appl receivedWSMs 31
scalar HighwayScenario1.node[20].appl generatedBSMs 1391
scalar HighwayScenario1.node[20].appl receivedBSMs 10490
scalar HighwayScenario1.node[20].appl generatedWSAs 0
scalar HighwayScenario1.node[20].appl receivedWSAs 0
scalar HighwayScenario1.node[20].appl delayBSM_P1 0.00013640158233775
scalar HighwayScenario1.node[20].appl delayBSM_P2 0.00026357971996774
scalar HighwayScenario1.node[20].nic.phy80211p busyTime 0.012508764236552
scalar HighwayScenario1.node[20].nic.mac1609_4 ReceivedUnicastPackets 0
scalar HighwayScenario1.node[20].nic.mac1609_4 ReceivedBroadcasts 10521
scalar HighwayScenario1.node[20].nic.mac1609_4 SentPackets 1391
scalar HighwayScenario1.node[20].nic.mac1609_4 SNIRLostPackets 3041
scalar HighwayScenario1.node[20].nic.mac1609_4 RXTXLostPackets 0
scalar HighwayScenario1.node[20].nic.mac1609_4 TotalLostPackets 3041
scalar HighwayScenario1.node[20].nic.mac1609_4 DroppedPacketsInMac 0
scalar HighwayScenario1.node[20].nic.mac1609_4 TooLittleTime 0
scalar HighwayScenario1.node[20].nic.mac1609_4 TimesIntoBackoff 1391
scalar HighwayScenario1.node[20].nic.mac1609_4 SlotsBackoff 2097
scalar HighwayScenario1.node[20].nic.mac1609_4 NumInternalContention 0
scalar HighwayScenario1.node[20].nic.mac1609_4 totalBusyTime 1.736303
scalar HighwayScenario1.node[20].veinsmobility startTime 41
scalar HighwayScenario1.node[20].veinsmobility totalTime 139
scalar HighwayScenario1.node[20].veinsmobility stopTime 180.09479522488
scalar HighwayScenario1.node[20].veinsmobility minSpeed 0
scalar HighwayScenario1.node[20].veinsmobility maxSpeed 33.506511756428
scalar HighwayScenario1.node[20].veinsmobility totalDistance 4268.5897440764
scalar HighwayScenario1.node[20].veinsmobility totalCO2Emission 788.81424766917
scalar HighwayScenario1.node[21].appl generatedWSMs 0
scalar HighwayScenario1.node[21].appl receivedWSMs 45
scalar HighwayScenario1.node[21].appl generatedBSMs 1371
scalar HighwayScenario1.node[21].appl receivedBSMs 9212
scalar HighwayScenario1.node[21].appl generatedWSAs 0
scalar HighwayScenario1.node[21].appl receivedWSAs 0
scalar HighwayScenario1.node[21].appl delayBSM_P1 0.00013671025391381
scalar HighwayScenario1.node[21].appl delayBSM_P2 0.00026394795462222
scalar HighwayScenario1.node[21].nic.phy80211p busyTime 0.0088697750925212
scalar HighwayScenario1.node[21].nic.mac1609_4 ReceivedUnicastPackets 0
scalar HighwayScenario1.node[21].nic.mac1609_4 ReceivedBroadcasts 9257
scalar HighwayScenario1.node[21].nic.mac1609_4 SentPackets 1371
scalar HighwayScenario1.node[21].nic.mac1609_4 SNIRLostPackets 198
scalar HighwayScenario1.node[21].nic.mac1609_4 RXTXLostPackets 0
scalar HighwayScenario1.node[21].nic.mac1609_4 TotalLostPackets 198
scalar HighwayScenario1.node[21].nic.mac1609_4 DroppedPacketsInMac 0
scalar HighwayScenario1.node[21].nic.mac1609_4 TooLittleTime 0
scalar HighwayScenario1.node[21].nic.mac1609_4 TimesIntoBackoff 1371
scalar HighwayScenario1.node[21].nic.mac1609_4 SlotsBackoff 1992
scalar HighwayScenario1.node[21].nic.mac1609_4 NumInternalContention 0
scalar HighwayScenario1.node[21].nic.mac1609_4 totalBusyTime 1.380059
scalar HighwayScenario1.node[21].veinsmobility startTime 43
scalar HighwayScenario1.node[21].veinsmobility totalTime 137
scalar HighwayScenario1.node[21].veinsmobility stopTime 180.09479522488
scalar HighwayScenario1.node[21].veinsmobility minSpeed 0
scalar HighwayScenario1.node[21].veinsmobility maxSpeed 30.476052781668
scalar HighwayScenario1.node[21].veinsmobility totalDistance 3100.0011623176
scalar HighwayScenario1.node[21].veinsmobility totalCO2Emission 569.25291473192
scalar HighwayScenario1.node[22].appl generatedWSMs 0
scalar HighwayScenario1.node[22].appl receivedWSMs 45
scalar HighwayScenario1.node[22].appl generatedBSMs 1351
scalar HighwayScenario1.node[22].appl receivedBSMs 9564
scalar HighwayScenario1.node[22].appl generatedWSAs 0
scalar HighwayScenario1.node[22].appl receivedWSAs 0
scalar HighwayScenario1.node[22].appl delayBSM_P1 0.00013676761210414
scalar HighwayScenario1.node[22].appl delayBSM_P2 0.00026408413913333
scalar HighwayScenario1.node[22].nic.phy80211p busyTime 0.0091725813562039
scalar HighwayScenario1.node[22].nic.mac1609_4 ReceivedUnicastPackets 0
scalar HighwayScenario1.node[22].nic.mac1609_4 ReceivedBroadcasts 9609
scalar HighwayScenario1.node[22].nic.mac1609_4 SentPackets 1351
scalar HighwayScenario1.node[22].nic.mac1609_4 SNIRLostPackets 27
scalar HighwayScenario1.node[22].nic.mac1609_4 RXTXLostPackets 0
scalar HighwayScenario1.node[22].nic.mac1609_4 TotalLostPackets 27
scalar HighwayScenario1.node[22].nic.mac1609_4 DroppedPacketsInMac 0
scalar HighwayScenario1.node[22].nic.mac1609_4 TooLittleTime 0
scalar HighwayScenario1.node[22].nic.mac1609_4 TimesIntoBackoff 1351
scalar HighwayScenario1.node[22].nic.mac1609_4 SlotsBackoff 2020
scalar HighwayScenario1.node[22].nic.mac1609_4 NumInternalContention 0
scalar HighwayScenario1.node[22].nic.mac1609_4 totalBusyTime 1.413447
scalar HighwayScenario1.node[22].veinsmobility startTime 45
scalar HighwayScenario1.node[22].veinsmobility totalTime 135
scalar HighwayScenario1.node[22].veinsmobility stopTime 180.09479522488
scalar HighwayScenario1.node[22].veinsmobility minSpeed 0
scalar HighwayScenario1.node[22].veinsmobility maxSpeed 31.133692542322
scalar HighwayScenario1.node[22].veinsmobility totalDistance 3064.2199483106
scalar HighwayScenario1.node[22].veinsmobility totalCO2Emission 584.59169660389
scalar HighwayScenario1.node[23].appl generatedWSMs 0
scalar HighwayScenario1.node[23].appl receivedWSMs 42
scalar HighwayScenario1.node[23].appl generatedBSMs 1331
scalar HighwayScenario1.node[23].appl receivedBSMs 10886
scalar HighwayScenario1.node[23].appl generatedWSAs 0
scalar HighwayScenario1.node[23].appl receivedWSAs 0
scalar HighwayScenario1.node[23].appl delayBSM_P1 0.0001376576128036
scalar HighwayScenario1.node[23].appl delayBSM_P2 0.00026402838440476
scalar HighwayScenario1.node[23].nic.phy80211p busyTime 0.010578926077619
scalar HighwayScenario1.node[23].nic.mac1609_4 ReceivedUnicastPackets 0
scalar HighwayScenario1.node[23].nic.mac1609_4 ReceivedBroadcasts 10928
scalar HighwayScenario1.node[23].nic.mac1609_4 SentPackets 1331
scalar HighwayScenario1.node[23].nic.mac1609_4 SNIRLostPackets 30
scalar HighwayScenario1.node[23].nic.mac1609_4 RXTXLostPackets 0
scalar HighwayScenario1.node[23].nic.mac1609_4 TotalLostPackets 30
scalar HighwayScenario1.node[23].nic.mac1609_4 DroppedPacketsInMac 0
scalar HighwayScenario1.node[23].nic.mac1609_4 TooLittleTime 0
scalar HighwayScenario1.node[23].nic.mac1609_4 TimesIntoBackoff 1331
scalar HighwayScenario1.node[23].nic.mac1609_4 SlotsBackoff 2024
scalar HighwayScenario1.node[23].nic.mac1609_4 NumInternalContention 0
scalar HighwayScenario1.node[23].nic.mac1609_4 totalBusyTime 1.579699
scalar HighwayScenario1.node[23].veinsmobility startTime 47
scalar HighwayScenario1.node[23].veinsmobility totalTime 133
scalar HighwayScenario1.node[23].veinsmobility stopTime 180.09479522488
scalar HighwayScenario1.node[23].veinsmobility minSpeed 0
scalar HighwayScenario1.node[23].veinsmobility maxSpeed 32.313281879308
scalar HighwayScenario1.node[23].veinsmobility totalDistance 2792.9173661383
scalar HighwayScenario1.node[23].veinsmobility totalCO2Emission 648.56454816217
scalar HighwayScenario1.node[24].appl generatedWSMs 0
scalar HighwayScenario1.node[24].appl receivedWSMs 34
scalar HighwayScenario1.node[24].appl generatedBSMs 1310
scalar HighwayScenario1.node[24].appl receivedBSMs 14375
scalar HighwayScenario1.node[24].appl generatedWSAs 0
scalar HighwayScenario1.node[24].appl receivedWSAs 0
scalar HighwayScenario1.node[24].appl delayBSM_P1 0.00013974812419944
scalar HighwayScenario1.node[24].appl delayBSM_P2 0.00026370053194118
scalar HighwayScenario1.node[24].nic.phy80211p busyTime 0.0141020396487
scalar HighwayScenario1.node[24].nic.mac1609_4 ReceivedUnicastPackets 0
scalar HighwayScenario1.node[24].nic.mac1609_4 ReceivedBroadcasts 14409
scalar HighwayScenario1.node[24].nic.mac1609_4 SentPackets 1310
scalar HighwayScenario1.node[24].nic.mac1609_4 SNIRLostPackets 0
scalar HighwayScenario1.node[24].nic.mac1609_4 RXTXLostPackets 0
scalar HighwayScenario1.node[24].nic.mac1609_4 TotalLostPackets 0
scalar HighwayScenario1.node[24].nic.mac1609_4 DroppedPacketsInMac 0
scalar HighwayScenario1.node[24].nic.mac1609_4 TooLittleTime 0
scalar HighwayScenario1.node[24].nic.mac1609_4 TimesIntoBackoff 1310
scalar HighwayScenario1.node[24].nic.mac1609_4 SlotsBackoff 1999
scalar HighwayScenario1.node[24].nic.mac1609_4 NumInternalContention 0
scalar HighwayScenario1.node[24].nic.mac1609_4 totalBusyTime 2.017694
scalar HighwayScenario1.node[24].veinsmobility startTime 49
scalar HighwayScenario1.node[24].veinsmobility totalTime 131
scalar HighwayScenario1.node[24].veinsmobility stopTime 180.09479522488
scalar HighwayScenario1.node[24].veinsmobility minSpeed 0
scalar HighwayScenario1.node[24].veinsmobility maxSpeed 30.246936229586
scalar HighwayScenario1.node[24].veinsmobility totalDistance 2244.0453276306
scalar HighwayScenario1.node[24].veinsmobility totalCO2Emission 441.7627823301
scalar HighwayScenario1.node[25].appl generatedWSMs 0
scalar HighwayScenario1.node[25].appl receivedWSMs 38
scalar HighwayScenario1.node[25].appl generatedBSMs 1291
scalar HighwayScenario1.node[25].appl receivedBSMs 13964
scalar HighwayScenario1.node[25].appl generatedWSAs 0
scalar HighwayScenario1.node[25].appl receivedWSAs 0
scalar HighwayScenario1.node[25].appl delayBSM_P1 0.00013949551939165
scalar HighwayScenario1.node[25].appl delayBSM_P2 0.00026419087105263
scalar HighwayScenario1.node[25].nic.phy80211p busyTime 0.013920933038927
scalar HighwayScenario1.node[25].nic.mac1609_4 ReceivedUnicastPackets 0
scalar HighwayScenario1.node[25].nic.mac1609_4 ReceivedBroadcasts 14002
scalar HighwayScenario1.node[25].nic.mac1609_4 SentPackets 1291
scalar HighwayScenario1.node[25].nic.mac1609_4 SNIRLostPackets 0
scalar HighwayScenario1.node[25].nic.mac1609_4 RXTXLostPackets 0
scalar HighwayScenario1.node[25].nic.mac1609_4 TotalLostPackets 0
scalar HighwayScenario1.node[25].nic.mac1609_4 DroppedPacketsInMac 0
scalar HighwayScenario1.node[25].nic.mac1609_4 TooLittleTime 0
scalar HighwayScenario1.node[25].nic.mac1609_4 TimesIntoBackoff 1291
scalar HighwayScenario1.node[25].nic.mac1609_4 SlotsBackoff 1938
scalar HighwayScenario1.node[25].nic.mac1609_4 NumInternalContention 0
scalar HighwayScenario1.node[25].nic.mac1609_4 totalBusyTime 1.963659
scalar HighwayScenario1.node[25].veinsmobility startTime 51
scalar HighwayScenario1.node[25].veinsmobility totalTime 129
scalar HighwayScenario1.node[25].veinsmobility stopTime 180.09479522488
scalar HighwayScenario1.node[25].veinsmobility minSpeed 0
scalar HighwayScenario1.node[25].veinsmobility maxSpeed 31.511542353748
scalar HighwayScenario1.node[25].veinsmobility totalDistance 2358.559169579
scalar HighwayScenario1.node[25].veinsmobility totalCO2Emission 465.6872175717
scalar HighwayScenario1.node[26].appl generatedWSMs 0
scalar HighwayScenario1.node[26].appl receivedWSMs 35
scalar HighwayScenario1.node[26].appl generatedBSMs 1271
scalar HighwayScenario1.node[26].appl receivedBSMs 14854
scalar HighwayScenario1.node[26].appl generatedWSAs 0
scalar HighwayScenario1.node[26].appl receivedWSAs 0
scalar HighwayScenario1.node[26].appl delayBSM_P1 0.00014023419615969
scalar HighwayScenario1.node[26].appl delayBSM_P2 0.00026435235097143
scalar HighwayScenario1.node[26].nic.phy80211p busyTime 0.015030292913407
scalar HighwayScenario1.node[26].nic.mac1609_4 ReceivedUnicastPackets 0
scalar HighwayScenario1.node[26].nic.mac1609_4 ReceivedBroadcasts 14889
scalar HighwayScenario1.node[26].nic.mac1609_4 SentPackets 1271
scalar HighwayScenario1.node[26].nic.mac1609_4 SNIRLostPackets 0
scalar HighwayScenario1.node[26].nic.mac1609_4 RXTXLostPackets 0
scalar HighwayScenario1.node[26].nic.mac1609_4 TotalLostPackets 0
scalar HighwayScenario1.node[26].nic.mac1609_4 DroppedPacketsInMac 0
scalar HighwayScenario1.node[26].nic.mac1609_4 TooLittleTime 0
scalar HighwayScenario1.node[26].nic.mac1609_4 TimesIntoBackoff 1271
scalar HighwayScenario1.node[26].nic.mac1609_4 SlotsBackoff 1866
scalar HighwayScenario1.node[26].nic.mac1609_4 NumInternalContention 0
scalar HighwayScenario1.node[26].nic.mac1609_4 totalBusyTime 2.074231
scalar HighwayScenario1.node[26].veinsmobility startTime 53
scalar HighwayScenario1.node[26].veinsmobility totalTime 127
scalar HighwayScenario1.node[26].veinsmobility stopTime 180.09479522488
scalar HighwayScenario1.node[26].veinsmobility minSpeed 0
scalar HighwayScenario1.node[26].veinsmobility maxSpeed 32.664085859891
scalar HighwayScenario1.node[26].veinsmobility totalDistance 2105.3577176317
scalar HighwayScenario1.node[26].veinsmobility totalCO2Emission 509.25001902212
scalar HighwayScenario1.node[27].appl generatedWSMs 0
scalar HighwayScenario1.node[27].appl receivedWSMs 37
scalar HighwayScenario1.node[27].appl generatedBSMs 1251
scalar HighwayScenario1.node[27].appl receivedBSMs 14775
scalar HighwayScenario1.node[27].appl generatedWSAs 0
scalar HighwayScenario1.node[27].appl receivedWSAs 0
scalar HighwayScenario1.node[27].appl delayBSM_P1 0.0001400305448465
scalar HighwayScenario1.node[27].appl delayBSM_P2 0.00026417262164865
scalar HighwayScenario1.node[27].nic.phy80211p busyTime 0.015193853561874
scalar HighwayScenario1.node[27].nic.mac1609_4 ReceivedUnicastPackets 0
scalar HighwayScenario1.node[27].nic.mac1609_4 ReceivedBroadcasts 14812
scalar HighwayScenario1.node[27].nic.mac1609_4 SentPackets 1251
scalar HighwayScenario1.node[27].nic.mac1609_4 SNIRLostPackets 0
scalar HighwayScenario1.node[27].nic.mac1609_4 RXTXLostPackets 0
scalar HighwayScenario1.node[27].nic.mac1609_4 TotalLostPackets 0
scalar HighwayScenario1.node[27].nic.mac1609_4 DroppedPacketsInMac 0
scalar HighwayScenario1.node[27].nic.mac1609_4 TooLittleTime 0
scalar HighwayScenario1.node[27].nic.mac1609_4 TimesIntoBackoff 1251
scalar HighwayScenario1.node[27].nic.mac1609_4 SlotsBackoff 1851
scalar HighwayScenario1.node[27].nic.mac1609_4 NumInternalContention 0
scalar HighwayScenario1.node[27].nic.mac1609_4 totalBusyTime 2.062051
scalar HighwayScenario1.node[27].veinsmobility startTime 55
scalar HighwayScenario1.node[27].veinsmobility totalTime 125
scalar HighwayScenario1.node[27].veinsmobility stopTime 180.09479522488
scalar HighwayScenario1.node[27].veinsmobility minSpeed 0
scalar HighwayScenario1.node[27].veinsmobility maxSpeed 34.187945280177
scalar HighwayScenario1.node[27].veinsmobility totalDistance 2141.5686893631
scalar HighwayScenario1.node[27].veinsmobility totalCO2Emission 456.80664703279
scalar HighwayScenario1.node[28].appl generatedWSMs 0
scalar HighwayScenario1.node[28].appl receivedWSMs 35
scalar HighwayScenario1.node[28].appl generatedBSMs 1231
scalar HighwayScenario1.node[28].appl receivedBSMs 14596
scalar HighwayScenario1.node[28].appl generatedWSAs 0
scalar HighwayScenario1.node[28].appl receivedWSAs 0
scalar HighwayScenario1.node[28].appl delayBSM_P1 0.00014102126700055
scalar HighwayScenario1.node[28].appl delayBSM_P2 0.00026414011042857
scalar HighwayScenario1.node[28].nic.phy80211p busyTime 0.015251465316382
scalar HighwayScenario1.node[28].nic.mac1609_4 ReceivedUnicastPackets 0
scalar HighwayScenario1.node[28].nic.mac1609_4 ReceivedBroadcasts 14631
scalar HighwayScenario1.node[28].nic.mac1609_4 SentPackets 1231
scalar HighwayScenario1.node[28].nic.mac1609_4 SNIRLostPackets 1
scalar HighwayScenario1.node[28].nic.mac1609_4 RXTXLostPackets 0
scalar HighwayScenario1.node[28].nic.mac1609_4 TotalLostPackets 1
scalar HighwayScenario1.node[28].nic.mac1609_4 DroppedPacketsInMac 0
scalar HighwayScenario1.node[28].nic.mac1609_4 TooLittleTime 0
scalar HighwayScenario1.node[28].nic.mac1609_4 TimesIntoBackoff 1231
scalar HighwayScenario1.node[28].nic.mac1609_4 SlotsBackoff 1876
scalar HighwayScenario1.node[28].nic.mac1609_4 NumInternalContention 0
scalar HighwayScenario1.node[28].nic.mac1609_4 totalBusyTime 2.036175
scalar HighwayScenario1.node[28].veinsmobility startTime 57
scalar HighwayScenario1.node[28].veinsmobility totalTime 123
scalar HighwayScenario1.node[28].veinsmobility stopTime 180.09479522488
scalar HighwayScenario1.node[28].veinsmobility minSpeed 0
scalar HighwayScenario1.node[28].veinsmobility maxSpeed 30.655354232993
scalar HighwayScenario1.node[28].veinsmobility totalDistance 1832.4799501041
scalar HighwayScenario1.node[28].veinsmobility totalCO2Emission 478.90549291393
scalar HighwayScenario1.node[29].appl generatedWSMs 0
scalar HighwayScenario1.node[29].appl receivedWSMs 40
scalar HighwayScenario1.node[29].appl generatedBSMs 1211
scalar HighwayScenario1.node[29].appl receivedBSMs 14612
scalar HighwayScenario1.node[29].appl generatedWSAs 0
scalar HighwayScenario1.node[29].appl receivedWSAs 0
scalar HighwayScenario1.node[29].appl delayBSM_P1 0.00014143153696441
scalar HighwayScenario1.node[29].appl delayBSM_P2 0.000264453577375
scalar HighwayScenario1.node[29].nic.phy80211p busyTime 0.015530840912748
scalar HighwayScenario1.node[29].nic.mac1609_4 ReceivedUnicastPackets 0
scalar HighwayScenario1.node[29].nic.mac1609_4 ReceivedBroadcasts 14652
scalar HighwayScenario1.node[29].nic.mac1609_4 SentPackets 1211
scalar HighwayScenario1.node[29].nic.mac1609_4 SNIRLostPackets 1
scalar HighwayScenario1.node[29].nic.mac1609_4 RXTXLostPackets 0
scalar HighwayScenario1.node[29].nic.mac1609_4 TotalLostPackets 1
scalar HighwayScenario1.node[29].nic.mac1609_4 DroppedPacketsInMac 0
scalar HighwayScenario1.node[29].nic.mac1609_4 TooLittleTime 0
scalar HighwayScenario1.node[29].nic.mac1609_4 TimesIntoBackoff 1211
scalar HighwayScenario1.node[29].nic.mac1609_4 SlotsBackoff 1836
scalar HighwayScenario1.node[29].nic.mac1609_4 NumInternalContention 0
scalar HighwayScenario1.node[29].nic.mac1609_4 totalBusyTime 2.036923
scalar HighwayScenario1.node[29].veinsmobility startTime 59
scalar HighwayScenario1.node[29].veinsmobility totalTime 121
scalar HighwayScenario1.node[29].veinsmobility stopTime 180.09479522488
scalar HighwayScenario1.node[29].veinsmobility minSpeed 0
scalar HighwayScenario1.node[29].veinsmobility maxSpeed 33.028904507427
scalar HighwayScenario1.node[29].veinsmobility totalDistance 1923.1247644707
scalar HighwayScenario1.node[29].veinsmobility totalCO2Emission 472.62709147939
scalar HighwayScenario1.node[30].appl generatedWSMs 0
scalar HighwayScenario1.node[30].appl receivedWSMs 43
scalar HighwayScenario1.node[30].appl generatedBSMs 1191
scalar HighwayScenario1.node[30].appl receivedBSMs 14267
scalar HighwayScenario1.node[30].appl generatedWSAs 0
scalar HighwayScenario1.node[30].appl receivedWSAs 0
scalar HighwayScenario1.node[30].appl delayBSM_P1 0.00014101444833854
scalar HighwayScenario1.node[30].appl delayBSM_P2 0.00026374985239535
scalar HighwayScenario1.node[30].nic.phy80211p busyTime 0.015426232494295
scalar HighwayScenario1.node[30].nic.mac1609_4 ReceivedUnicastPackets 0
scalar HighwayScenario1.node[30].nic.mac1609_4 ReceivedBroadcasts 14310
scalar HighwayScenario1.node[30].nic.mac1609_4 SentPackets 1191
scalar HighwayScenario1.node[30].nic.mac1609_4 SNIRLostPackets 0
scalar HighwayScenario1.node[30].nic.mac1609_4 RXTXLostPackets 0
scalar HighwayScenario1.node[30].nic.mac1609_4 TotalLostPackets 0
scalar HighwayScenario1.node[30].nic.mac1609_4 DroppedPacketsInMac 0
scalar HighwayScenario1.node[30].nic.mac1609_4 TooLittleTime 0
scalar HighwayScenario1.node[30].nic.mac1609_4 TimesIntoBackoff 1191
scalar HighwayScenario1.node[30].nic.mac1609_4 SlotsBackoff 1739
scalar HighwayScenario1.node[30].nic.mac1609_4 NumInternalContention 0
scalar HighwayScenario1.node[30].nic.mac1609_4 totalBusyTime 1.990823
scalar HighwayScenario1.node[30].veinsmobility startTime 61
scalar HighwayScenario1.node[30].veinsmobility totalTime 119
scalar HighwayScenario1.node[30].veinsmobility stopTime 180.09479522488
scalar HighwayScenario1.node[30].veinsmobility minSpeed 0
scalar HighwayScenario1.node[30].veinsmobility maxSpeed 32.241743790504
scalar HighwayScenario1.node[30].veinsmobility totalDistance 1787.1905573927
scalar HighwayScenario1.node[30].veinsmobility totalCO2Emission 483.45321247779
scalar HighwayScenario1.node[31].appl generatedWSMs 0
scalar HighwayScenario1.node[31].appl receivedWSMs 40
scalar HighwayScenario1.node[31].appl generatedBSMs 1171
scalar HighwayScenario1.node[31].appl receivedBSMs 14209
scalar HighwayScenario1.node[31].appl generatedWSAs 0
scalar HighwayScenario1.node[31].appl receivedWSAs 0
scalar HighwayScenario1.node[31].appl delayBSM_P1 0.00014047612309205
scalar HighwayScenario1.node[31].appl delayBSM_P2 0.000263834611475
scalar HighwayScenario1.node[31].nic.phy80211p busyTime 0.015621941150214
scalar HighwayScenario1.node[31].nic.mac1609_4 ReceivedUnicastPackets 0
scalar HighwayScenario1.node[31].nic.mac1609_4 ReceivedBroadcasts 14249
scalar HighwayScenario1.node[31].nic.mac1609_4 SentPackets 1171
scalar HighwayScenario1.node[31].nic.mac1609_4 SNIRLostPackets 1
scalar HighwayScenario1.node[31].nic.mac1609_4 RXTXLostPackets 0
scalar HighwayScenario1.node[31].nic.mac1609_4 TotalLostPackets 1
scalar HighwayScenario1.node[31].nic.mac1609_4 DroppedPacketsInMac 0
scalar HighwayScenario1.node[31].nic.mac1609_4 TooLittleTime 0
scalar HighwayScenario1.node[31].nic.mac1609_4 TimesIntoBackoff 1171
scalar HighwayScenario1.node[31].nic.mac1609_4 SlotsBackoff 1748
scalar HighwayScenario1.node[31].nic.mac1609_4 NumInternalContention 0
scalar HighwayScenario1.node[31].nic.mac1609_4 totalBusyTime 1.980179
scalar HighwayScenario1.node[31].veinsmobility startTime 63
scalar HighwayScenario1.node[31].veinsmobility totalTime 117
scalar HighwayScenario1.node[31].veinsmobility stopTime 180.09479522488
scalar HighwayScenario1.node[31].veinsmobility minSpeed 0
scalar HighwayScenario1.node[31].veinsmobility maxSpeed 32.881584998627
scalar HighwayScenario1.node[31].veinsmobility totalDistance 1506.1880769815
scalar HighwayScenario1.node[31].veinsmobility totalCO2Emission 402.58746272111
scalar HighwayScenario1.node[32].appl generatedWSMs 0
scalar HighwayScenario1.node[32].appl receivedWSMs 37
scalar HighwayScenario1.node[32].appl generatedBSMs 1151
scalar HighwayScenario1.node[32].appl receivedBSMs 14350
scalar HighwayScenario1.node[32].appl generatedWSAs 0
scalar HighwayScenario1.node[32].appl receivedWSAs 0
scalar HighwayScenario1.node[32].appl delayBSM_P1 0.00014014173563679
scalar HighwayScenario1.node[32].appl delayBSM_P2 0.00026365142691892
scalar HighwayScenario1.node[32].nic.phy80211p busyTime 0.016043540425886
scalar HighwayScenario1.node[32].nic.mac1609_4 ReceivedUnicastPackets 0
scalar HighwayScenario1.node[32].nic.mac1609_4 ReceivedBroadcasts 14387
scalar HighwayScenario1.node[32].nic.mac1609_4 SentPackets 1151
scalar HighwayScenario1.node[32].nic.mac1609_4 SNIRLostPackets 1
scalar HighwayScenario1.node[32].nic.mac1609_4 RXTXLostPackets 0
scalar HighwayScenario1.node[32].nic.mac1609_4 TotalLostPackets 1
scalar HighwayScenario1.node[32].nic.mac1609_4 DroppedPacketsInMac 0
scalar HighwayScenario1.node[32].nic.mac1609_4 TooLittleTime 0
scalar HighwayScenario1.node[32].nic.mac1609_4 TimesIntoBackoff 1151
scalar HighwayScenario1.node[32].nic.mac1609_4 SlotsBackoff 1730
scalar HighwayScenario1.node[32].nic.mac1609_4 NumInternalContention 0
scalar HighwayScenario1.node[32].nic.mac1609_4 totalBusyTime 1.994879
scalar HighwayScenario1.node[32].veinsmobility startTime 65
scalar HighwayScenario1.node[32].veinsmobility totalTime 115
scalar HighwayScenario1.node[32].veinsmobility stopTime 180.09479522488
scalar HighwayScenario1.node[32].veinsmobility minSpeed 0
scalar HighwayScenario1.node[32].veinsmobility maxSpeed 34.032394894038
scalar HighwayScenario1.node[32].veinsmobility totalDistance 1472.814305981
scalar HighwayScenario1.node[32].veinsmobility totalCO2Emission 412.52026853904
scalar HighwayScenario1.node[33].appl generatedWSMs 0
scalar HighwayScenario1.node[33].appl receivedWSMs 29
scalar HighwayScenario1.node[33].appl generatedBSMs 1131
scalar HighwayScenario1.node[33].appl receivedBSMs 14346
scalar HighwayScenario1.node[33].appl generatedWSAs 0
scalar HighwayScenario1.node[33].appl receivedWSAs 0
scalar HighwayScenario1.node[33].appl delayBSM_P1 0.00013918302239753
scalar HighwayScenario1.node[33].appl delayBSM_P2 0.00026346743706897
scalar HighwayScenario1.node[33].nic.phy80211p busyTime 0.016524191022969
scalar HighwayScenario1.node[33].nic.mac1609_4 ReceivedUnicastPackets 0
scalar HighwayScenario1.node[33].nic.mac1609_4 ReceivedBroadcasts 14375
scalar HighwayScenario1.node[33].nic.mac1609_4 SentPackets 1131
scalar HighwayScenario1.node[33].nic.mac1609_4 SNIRLostPackets 195
scalar HighwayScenario1.node[33].nic.mac1609_4 RXTXLostPackets 0
scalar HighwayScenario1.node[33].nic.mac1609_4 TotalLostPackets 195
scalar HighwayScenario1.node[33].nic.mac1609_4 DroppedPacketsInMac 0
scalar HighwayScenario1.node[33].nic.mac1609_4 TooLittleTime 0
scalar HighwayScenario1.node[33].nic.mac1609_4 TimesIntoBackoff 1131
scalar HighwayScenario1.node[33].nic.mac1609_4 SlotsBackoff 1693
scalar HighwayScenario1.node[33].nic.mac1609_4 NumInternalContention 0
scalar HighwayScenario1.node[33].nic.mac1609_4 totalBusyTime 2.000491
scalar HighwayScenario1.node[33].veinsmobility startTime 67
scalar HighwayScenario1.node[33].veinsmobility totalTime 113
scalar HighwayScenario1.node[33].veinsmobility stopTime 180.09479522488
scalar HighwayScenario1.node[33].veinsmobility minSpeed 0
scalar HighwayScenario1.node[33].veinsmobility maxSpeed 32.336215222711
scalar HighwayScenario1.node[33].veinsmobility totalDistance 1439.2744122215
scalar HighwayScenario1.node[33].veinsmobility totalCO2Emission 475.02118249613
scalar HighwayScenario1.node[34].appl generatedWSMs 0
scalar HighwayScenario1.node[34].appl receivedWSMs 24
scalar HighwayScenario1.node[34].appl generatedBSMs 1111
scalar HighwayScenario1.node[34].appl receivedBSMs 16951
scalar HighwayScenario1.node[34].appl generatedWSAs 0
scalar HighwayScenario1.node[34].appl receivedWSAs 0
scalar HighwayScenario1.node[34].appl delayBSM_P1 0.00013844226001357
scalar HighwayScenario1.node[34].appl delayBSM_P2 0.00026320379395833
scalar HighwayScenario1.node[34].nic.phy80211p busyTime 0.019817310032779
scalar HighwayScenario1.node[34].nic.mac1609_4 ReceivedUnicastPackets 0
scalar HighwayScenario1.node[34].nic.mac1609_4 ReceivedBroadcasts 16975
scalar HighwayScenario1.node[34].nic.mac1609_4 SentPackets 1111
scalar HighwayScenario1.node[34].nic.mac1609_4 SNIRLostPackets 200
scalar HighwayScenario1.node[34].nic.mac1609_4 RXTXLostPackets 0
scalar HighwayScenario1.node[34].nic.mac1609_4 TotalLostPackets 200
scalar HighwayScenario1.node[34].nic.mac1609_4 DroppedPacketsInMac 0
scalar HighwayScenario1.node[34].nic.mac1609_4 TooLittleTime 0
scalar HighwayScenario1.node[34].nic.mac1609_4 TimesIntoBackoff 1111
scalar HighwayScenario1.node[34].nic.mac1609_4 SlotsBackoff 1676
scalar HighwayScenario1.node[34].nic.mac1609_4 NumInternalContention 0
scalar HighwayScenario1.node[34].nic.mac1609_4 totalBusyTime 2.329431
scalar HighwayScenario1.node[34].veinsmobility startTime 69
scalar HighwayScenario1.node[34].veinsmobility totalTime 111
scalar HighwayScenario1.node[34].veinsmobility stopTime 180.09479522488
scalar HighwayScenario1.node[34].veinsmobility minSpeed 0
scalar HighwayScenario1.node[34].veinsmobility maxSpeed 33.926419435525
scalar HighwayScenario1.node[34].veinsmobility totalDistance 1353.0724186509
scalar HighwayScenario1.node[34].veinsmobility totalCO2Emission 431.26650173054
scalar HighwayScenario1.node[35].appl generatedWSMs 0
scalar HighwayScenario1.node[35].appl receivedWSMs 16
scalar HighwayScenario1.node[35].appl generatedBSMs 1091
scalar HighwayScenario1.node[35].appl receivedBSMs 16078
scalar HighwayScenario1.node[35].appl generatedWSAs 0
scalar HighwayScenario1.node[35].appl receivedWSAs 0
scalar HighwayScenario1.node[35].appl delayBSM_P1 0.00013724362933655
scalar HighwayScenario1.node[35].appl delayBSM_P2 0.00026285138775
scalar HighwayScenario1.node[35].nic.phy80211p busyTime 0.018977990615699
scalar HighwayScenario1.node[35].nic.mac1609_4 ReceivedUnicastPackets 0
scalar HighwayScenario1.node[35].nic.mac1609_4 ReceivedBroadcasts 16094
scalar HighwayScenario1.node[35].nic.mac1609_4 SentPackets 1091
scalar HighwayScenario1.node[35].nic.mac1609_4 SNIRLostPackets 65
scalar HighwayScenario1.node[35].nic.mac1609_4 RXTXLostPackets 0
scalar HighwayScenario1.node[35].nic.mac1609_4 TotalLostPackets 65
scalar HighwayScenario1.node[35].nic.mac1609_4 DroppedPacketsInMac 0
scalar HighwayScenario1.node[35].nic.mac1609_4 TooLittleTime 0
scalar HighwayScenario1.node[35].nic.mac1609_4 TimesIntoBackoff 1091
scalar HighwayScenario1.node[35].nic.mac1609_4 SlotsBackoff 1623
scalar HighwayScenario1.node[35].nic.mac1609_4 NumInternalContention 0
scalar HighwayScenario1.node[35].nic.mac1609_4 totalBusyTime 2.204739
scalar HighwayScenario1.node[35].veinsmobility startTime 71
scalar HighwayScenario1.node[35].veinsmobility totalTime 109
scalar HighwayScenario1.node[35].veinsmobility stopTime 180.09479522488
scalar HighwayScenario1.node[35].veinsmobility minSpeed 0
scalar HighwayScenario1.node[35].veinsmobility maxSpeed 32.673305197161
scalar HighwayScenario1.node[35].veinsmobility totalDistance 1295.1636908597
scalar HighwayScenario1.node[35].veinsmobility totalCO2Emission 494.20552848474
scalar HighwayScenario1.node[37].appl generatedWSMs 0
scalar HighwayScenario1.node[37].appl receivedWSMs 14
scalar HighwayScenario1.node[37].appl generatedBSMs 1071
scalar HighwayScenario1.node[37].appl receivedBSMs 15142
scalar HighwayScenario1.node[37].appl generatedWSAs 0
scalar HighwayScenario1.node[37].appl receivedWSAs 0
scalar HighwayScenario1.node[37].appl delayBSM_P1 0.00013708115943819
scalar HighwayScenario1.node[37].appl delayBSM_P2 0.0002621652075
scalar HighwayScenario1.node[37].nic.phy80211p busyTime 0.018168277887956
scalar HighwayScenario1.node[37].nic.mac1609_4 ReceivedUnicastPackets 0
scalar HighwayScenario1.node[37].nic.mac1609_4 ReceivedBroadcasts 15156
scalar HighwayScenario1.node[37].nic.mac1609_4 SentPackets 1071
scalar HighwayScenario1.node[37].nic.mac1609_4 SNIRLostPackets 31
scalar HighwayScenario1.node[37].nic.mac1609_4 RXTXLostPackets 0
scalar HighwayScenario1.node[37].nic.mac1609_4 TotalLostPackets 31
scalar HighwayScenario1.node[37].nic.mac1609_4 DroppedPacketsInMac 0
scalar HighwayScenario1.node[37].nic.mac1609_4 TooLittleTime 0
scalar HighwayScenario1.node[37].nic.mac1609_4 TimesIntoBackoff 1071
scalar HighwayScenario1.node[37].nic.mac1609_4 SlotsBackoff 1556
scalar HighwayScenario1.node[37].nic.mac1609_4 NumInternalContention 0
scalar HighwayScenario1.node[37].nic.mac1609_4 totalBusyTime 2.080047
scalar HighwayScenario1.node[37].veinsmobility startTime 73
scalar HighwayScenario1.node[37].veinsmobility totalTime 107
scalar HighwayScenario1.node[37].veinsmobility stopTime 180.09479522488
scalar HighwayScenario1.node[37].veinsmobility minSpeed 0
scalar HighwayScenario1.node[37].veinsmobility maxSpeed 30.58183279966
scalar HighwayScenario1.node[37].veinsmobility totalDistance 1252.9436750229
scalar HighwayScenario1.node[37].veinsmobility totalCO2Emission 428.18814929708
scalar HighwayScenario1.node[38].appl generatedWSMs 0
scalar HighwayScenario1.node[38].appl receivedWSMs 12
scalar HighwayScenario1.node[38].appl generatedBSMs 1051
scalar HighwayScenario1.node[38].appl receivedBSMs 13186
scalar HighwayScenario1.node[38].appl generatedWSAs 0
scalar HighwayScenario1.node[38].appl receivedWSAs 0
scalar HighwayScenario1.node[38].appl delayBSM_P1 0.00014407383543569
scalar HighwayScenario1.node[38].appl delayBSM_P2 0.000262767955
scalar HighwayScenario1.node[38].nic.phy80211p busyTime 0.016162170508682
scalar HighwayScenario1.node[38].nic.mac1609_4 ReceivedUnicastPackets 0
scalar HighwayScenario1.node[38].nic.mac1609_4 ReceivedBroadcasts 13198
scalar HighwayScenario1.node[38].nic.mac1609_4 SentPackets 1051
scalar HighwayScenario1.node[38].nic.mac1609_4 SNIRLostPackets 60
scalar HighwayScenario1.node[38].nic.mac1609_4 RXTXLostPackets 0
scalar HighwayScenario1.node[38].nic.mac1609_4 TotalLostPackets 60
scalar HighwayScenario1.node[38].nic.mac1609_4 DroppedPacketsInMac 0
scalar HighwayScenario1.node[38].nic.mac1609_4 TooLittleTime 0
scalar HighwayScenario1.node[38].nic.mac1609_4 TimesIntoBackoff 1051
scalar HighwayScenario1.node[38].nic.mac1609_4 SlotsBackoff 1617
scalar HighwayScenario1.node[38].nic.mac1609_4 NumInternalContention 0
scalar HighwayScenario1.node[38].nic.mac1609_4 totalBusyTime 1.827739
scalar HighwayScenario1.node[38].veinsmobility startTime 75
scalar HighwayScenario1.node[38].veinsmobility totalTime 105
scalar HighwayScenario1.node[38].veinsmobility stopTime 180.09479522488
scalar HighwayScenario1.node[38].veinsmobility minSpeed 0
scalar HighwayScenario1.node[38].veinsmobility maxSpeed 35.929113717391
scalar HighwayScenario1.node[38].veinsmobility totalDistance 2185.1402132542
scalar HighwayScenario1.node[38].veinsmobility totalCO2Emission 602.11688006871
scalar HighwayScenario1.node[39].appl generatedWSMs 0
scalar HighwayScenario1.node[39].appl receivedWSMs 17
scalar HighwayScenario1.node[39].appl generatedBSMs 1031
scalar HighwayScenario1.node[39].appl receivedBSMs 12062
scalar HighwayScenario1.node[39].appl generatedWSAs 0
scalar HighwayScenario1.node[39].appl receivedWSAs 0
scalar HighwayScenario1.node[39].appl delayBSM_P1 0.00014127279941394
scalar HighwayScenario1.node[39].appl delayBSM_P2 0.00026377682782353
scalar HighwayScenario1.node[39].nic.phy80211p busyTime 0.015018100541569
scalar HighwayScenario1.node[39].nic.mac1609_4 ReceivedUnicastPackets 0
scalar HighwayScenario1.node[39].nic.mac1609_4 ReceivedBroadcasts 12079
scalar HighwayScenario1.node[39].nic.mac1609_4 SentPackets 1031
scalar HighwayScenario1.node[39].nic.mac1609_4 SNIRLostPackets 0
scalar HighwayScenario1.node[39].nic.mac1609_4 RXTXLostPackets 0
scalar HighwayScenario1.node[39].nic.mac1609_4 TotalLostPackets 0
scalar HighwayScenario1.node[39].nic.mac1609_4 DroppedPacketsInMac 0
scalar HighwayScenario1.node[39].nic.mac1609_4 TooLittleTime 0
scalar HighwayScenario1.node[39].nic.mac1609_4 TimesIntoBackoff 1031
scalar HighwayScenario1.node[39].nic.mac1609_4 SlotsBackoff 1584
scalar HighwayScenario1.node[39].nic.mac1609_4 NumInternalContention 0
scalar HighwayScenario1.node[39].nic.mac1609_4 totalBusyTime 1.681287
scalar HighwayScenario1.node[39].veinsmobility startTime 77
scalar HighwayScenario1.node[39].veinsmobility totalTime 103
scalar HighwayScenario1.node[39].veinsmobility stopTime 180.09479522488
scalar HighwayScenario1.node[39].veinsmobility minSpeed 19.768782306943
scalar HighwayScenario1.node[39].veinsmobility maxSpeed 29.878403881011
scalar HighwayScenario1.node[39].veinsmobility totalDistance 2985.3640884559
scalar HighwayScenario1.node[39].veinsmobility totalCO2Emission 541.39621169132
scalar HighwayScenario1.node[40].appl generatedWSMs 0
scalar HighwayScenario1.node[40].appl receivedWSMs 12
scalar HighwayScenario1.node[40].appl generatedBSMs 1011
scalar HighwayScenario1.node[40].appl receivedBSMs 12433
scalar HighwayScenario1.node[40].appl generatedWSAs 0
scalar HighwayScenario1.node[40].appl receivedWSAs 0
scalar HighwayScenario1.node[40].appl delayBSM_P1 0.00014104843331915
scalar HighwayScenario1.node[40].appl delayBSM_P2 0.00026311834058333
scalar HighwayScenario1.node[40].nic.phy80211p busyTime 0.015772285768548
scalar HighwayScenario1.node[40].nic.mac1609_4 ReceivedUnicastPackets 0
scalar HighwayScenario1.node[40].nic.mac1609_4 ReceivedBroadcasts 12445
scalar HighwayScenario1.node[40].nic.mac1609_4 SentPackets 1011
scalar HighwayScenario1.node[40].nic.mac1609_4 SNIRLostPackets 0
scalar HighwayScenario1.node[40].nic.mac1609_4 RXTXLostPackets 0
scalar HighwayScenario1.node[40].nic.mac1609_4 TotalLostPackets 0
scalar HighwayScenario1.node[40].nic.mac1609_4 DroppedPacketsInMac 0
scalar HighwayScenario1.node[40].nic.mac1609_4 TooLittleTime 0
scalar HighwayScenario1.node[40].nic.mac1609_4 TimesIntoBackoff 1011
scalar HighwayScenario1.node[40].nic.mac1609_4 SlotsBackoff 1510
scalar HighwayScenario1.node[40].nic.mac1609_4 NumInternalContention 0
scalar HighwayScenario1.node[40].nic.mac1609_4 totalBusyTime 1.724915
scalar HighwayScenario1.node[40].veinsmobility startTime 79
scalar HighwayScenario1.node[40].veinsmobility totalTime 101
scalar HighwayScenario1.node[40].veinsmobility stopTime 180.09479522488
scalar HighwayScenario1.node[40].veinsmobility minSpeed 22.851861233068
scalar HighwayScenario1.node[40].veinsmobility maxSpeed 30.851861233068
scalar HighwayScenario1.node[40].veinsmobility totalDistance 2946.0813830875
scalar HighwayScenario1.node[40].veinsmobility totalCO2Emission 572.55399807582
scalar HighwayScenario1.node[41].appl generatedWSMs 0
scalar HighwayScenario1.node[41].appl receivedWSMs 8
scalar HighwayScenario1.node[41].appl generatedBSMs 991
scalar HighwayScenario1.node[41].appl receivedBSMs 12974
scalar HighwayScenario1.node[41].appl generatedWSAs 0
scalar HighwayScenario1.node[41].appl receivedWSAs 0
scalar HighwayScenario1.node[41].appl delayBSM_P1 0.00014087469373054
scalar HighwayScenario1.node[41].appl delayBSM_P2 0.00026404298975
scalar HighwayScenario1.node[41].nic.phy80211p busyTime 0.016779085079356
scalar HighwayScenario1.node[41].nic.mac1609_4 ReceivedUnicastPackets 0
scalar HighwayScenario1.node[41].nic.mac1609_4 ReceivedBroadcasts 12982
scalar HighwayScenario1.node[41].nic.mac1609_4 SentPackets 991
scalar HighwayScenario1.node[41].nic.mac1609_4 SNIRLostPackets 0
scalar HighwayScenario1.node[41].nic.mac1609_4 RXTXLostPackets 0
scalar HighwayScenario1.node[41].nic.mac1609_4 TotalLostPackets 0
scalar HighwayScenario1.node[41].nic.mac1609_4 DroppedPacketsInMac 0
scalar HighwayScenario1.node[41].nic.mac1609_4 TooLittleTime 0
scalar HighwayScenario1.node[41].nic.mac1609_4 TimesIntoBackoff 991
scalar HighwayScenario1.node[41].nic.mac1609_4 SlotsBackoff 1465
scalar HighwayScenario1.node[41].nic.mac1609_4 NumInternalContention 0
scalar HighwayScenario1.node[41].nic.mac1609_4 totalBusyTime 1.790559
scalar HighwayScenario1.node[41].veinsmobility startTime 81
scalar HighwayScenario1.node[41].veinsmobility totalTime 99
scalar HighwayScenario1.node[41].veinsmobility stopTime 180.09479522488
scalar HighwayScenario1.node[41].veinsmobility minSpeed 27.243780268017
scalar HighwayScenario1.node[41].veinsmobility maxSpeed 31.78667563128
scalar HighwayScenario1.node[41].veinsmobility totalDistance 2906.6645065213
scalar HighwayScenario1.node[41].veinsmobility totalCO2Emission 575.92355294307
scalar HighwayScenario1.node[42].appl generatedWSMs 0
scalar HighwayScenario1.node[42].appl receivedWSMs 2
scalar HighwayScenario1.node[42].appl generatedBSMs 971
scalar HighwayScenario1.node[42].appl receivedBSMs 13475
scalar HighwayScenario1.node[42].appl generatedWSAs 0
scalar HighwayScenario1.node[42].appl receivedWSAs 0
scalar HighwayScenario1.node[42].appl delayBSM_P1 0.00013597412799904
scalar HighwayScenario1.node[42].appl delayBSM_P2 0.000265184382
scalar HighwayScenario1.node[42].nic.phy80211p busyTime 0.017769356184372
scalar HighwayScenario1.node[42].nic.mac1609_4 ReceivedUnicastPackets 0
scalar HighwayScenario1.node[42].nic.mac1609_4 ReceivedBroadcasts 13477
scalar HighwayScenario1.node[42].nic.mac1609_4 SentPackets 971
scalar HighwayScenario1.node[42].nic.mac1609_4 SNIRLostPackets 0
scalar HighwayScenario1.node[42].nic.mac1609_4 RXTXLostPackets 0
scalar HighwayScenario1.node[42].nic.mac1609_4 TotalLostPackets 0
scalar HighwayScenario1.node[42].nic.mac1609_4 DroppedPacketsInMac 0
scalar HighwayScenario1.node[42].nic.mac1609_4 TooLittleTime 0
[...]
scalar HighwayScenario1.node[8].appl delayBSM_P1 0.00013623982286402
scalar HighwayScenario1.node[8].appl delayBSM_P2 0.00026366600477778
scalar HighwayScenario1.node[8].nic.phy80211p busyTime 0.016530656274363
scalar HighwayScenario1.node[8].nic.mac1609_4 ReceivedUnicastPackets 0
scalar HighwayScenario1.node[8].nic.mac1609_4 ReceivedBroadcasts 21049
scalar HighwayScenario1.node[8].nic.mac1609_4 SentPackets 1631
scalar HighwayScenario1.node[8].nic.mac1609_4 SNIRLostPackets 5
scalar HighwayScenario1.node[8].nic.mac1609_4 RXTXLostPackets 0
scalar HighwayScenario1.node[8].nic.mac1609_4 TotalLostPackets 5
scalar HighwayScenario1.node[8].nic.mac1609_4 DroppedPacketsInMac 0
scalar HighwayScenario1.node[8].nic.mac1609_4 TooLittleTime 0
scalar HighwayScenario1.node[8].nic.mac1609_4 TimesIntoBackoff 1631
scalar HighwayScenario1.node[8].nic.mac1609_4 SlotsBackoff 2520
scalar HighwayScenario1.node[8].nic.mac1609_4 NumInternalContention 0
scalar HighwayScenario1.node[8].nic.mac1609_4 totalBusyTime 2.906463
scalar HighwayScenario1.node[8].veinsmobility startTime 17
scalar HighwayScenario1.node[8].veinsmobility totalTime 163
scalar HighwayScenario1.node[8].veinsmobility stopTime 180.09479522488
scalar HighwayScenario1.node[8].veinsmobility minSpeed 29.509973557223
scalar HighwayScenario1.node[8].veinsmobility maxSpeed 30.738815846061
scalar HighwayScenario1.node[8].veinsmobility totalDistance 4911.1312392524
scalar HighwayScenario1.node[8].veinsmobility totalCO2Emission 847.24489145199
scalar HighwayScenario1.node[81].appl generatedWSMs 0
scalar HighwayScenario1.node[81].appl receivedWSMs 0
scalar HighwayScenario1.node[81].appl generatedBSMs 191
scalar HighwayScenario1.node[81].appl receivedBSMs 1923
scalar HighwayScenario1.node[81].appl generatedWSAs 0
scalar HighwayScenario1.node[81].appl receivedWSAs 0
scalar HighwayScenario1.node[81].appl delayBSM_P1 0.00013621933367915
scalar HighwayScenario1.node[81].appl delayBSM_P2 0
scalar HighwayScenario1.node[81].nic.phy80211p busyTime 0.012890633133329
scalar HighwayScenario1.node[81].nic.mac1609_4 ReceivedUnicastPackets 0
scalar HighwayScenario1.node[81].nic.mac1609_4 ReceivedBroadcasts 1923
scalar HighwayScenario1.node[81].nic.mac1609_4 SentPackets 191
scalar HighwayScenario1.node[81].nic.mac1609_4 SNIRLostPackets 0
scalar HighwayScenario1.node[81].nic.mac1609_4 RXTXLostPackets 0
scalar HighwayScenario1.node[81].nic.mac1609_4 TotalLostPackets 0
scalar HighwayScenario1.node[81].nic.mac1609_4 DroppedPacketsInMac 0
scalar HighwayScenario1.node[81].nic.mac1609_4 TooLittleTime 0
scalar HighwayScenario1.node[81].nic.mac1609_4 TimesIntoBackoff 191
scalar HighwayScenario1.node[81].nic.mac1609_4 SlotsBackoff 291
scalar HighwayScenario1.node[81].nic.mac1609_4 NumInternalContention 0
scalar HighwayScenario1.node[81].nic.mac1609_4 totalBusyTime 0.270783
scalar HighwayScenario1.node[81].veinsmobility startTime 161
scalar HighwayScenario1.node[81].veinsmobility totalTime 19
scalar HighwayScenario1.node[81].veinsmobility stopTime 180.09479522488
scalar HighwayScenario1.node[81].veinsmobility minSpeed 32.931355994664
scalar HighwayScenario1.node[81].veinsmobility maxSpeed 34.083929459451
scalar HighwayScenario1.node[81].veinsmobility totalDistance 638.16015931901
scalar HighwayScenario1.node[81].veinsmobility totalCO2Emission 118.48970698733
scalar HighwayScenario1.node[82].appl generatedWSMs 0
scalar HighwayScenario1.node[82].appl receivedWSMs 0
scalar HighwayScenario1.node[82].appl generatedBSMs 171
scalar HighwayScenario1.node[82].appl receivedBSMs 1440
scalar HighwayScenario1.node[82].appl generatedWSAs 0
scalar HighwayScenario1.node[82].appl receivedWSAs 0
scalar HighwayScenario1.node[82].appl delayBSM_P1 0.00013617789684444
scalar HighwayScenario1.node[82].appl delayBSM_P2 0
scalar HighwayScenario1.node[82].nic.phy80211p busyTime 0.011164099802858
scalar HighwayScenario1.node[82].nic.mac1609_4 ReceivedUnicastPackets 0
scalar HighwayScenario1.node[82].nic.mac1609_4 ReceivedBroadcasts 1440
scalar HighwayScenario1.node[82].nic.mac1609_4 SentPackets 171
scalar HighwayScenario1.node[82].nic.mac1609_4 SNIRLostPackets 51
scalar HighwayScenario1.node[82].nic.mac1609_4 RXTXLostPackets 0
scalar HighwayScenario1.node[82].nic.mac1609_4 TotalLostPackets 51
scalar HighwayScenario1.node[82].nic.mac1609_4 DroppedPacketsInMac 0
scalar HighwayScenario1.node[82].nic.mac1609_4 TooLittleTime 0
scalar HighwayScenario1.node[82].nic.mac1609_4 TimesIntoBackoff 171
scalar HighwayScenario1.node[82].nic.mac1609_4 SlotsBackoff 252
scalar HighwayScenario1.node[82].nic.mac1609_4 NumInternalContention 0
scalar HighwayScenario1.node[82].nic.mac1609_4 totalBusyTime 0.206379
scalar HighwayScenario1.node[82].veinsmobility startTime 163
scalar HighwayScenario1.node[82].veinsmobility totalTime 17
scalar HighwayScenario1.node[82].veinsmobility stopTime 180.09479522488
scalar HighwayScenario1.node[82].veinsmobility minSpeed 31.41530806508
scalar HighwayScenario1.node[82].veinsmobility maxSpeed 32.62481374597
scalar HighwayScenario1.node[82].veinsmobility totalDistance 544.80142038684
scalar HighwayScenario1.node[82].veinsmobility totalCO2Emission 104.70825777268
scalar HighwayScenario1.node[83].appl generatedWSMs 0
scalar HighwayScenario1.node[83].appl receivedWSMs 0
scalar HighwayScenario1.node[83].appl generatedBSMs 151
scalar HighwayScenario1.node[83].appl receivedBSMs 1269
scalar HighwayScenario1.node[83].appl generatedWSAs 0
scalar HighwayScenario1.node[83].appl receivedWSAs 0
scalar HighwayScenario1.node[83].appl delayBSM_P1 0.00013616390028605
scalar HighwayScenario1.node[83].appl delayBSM_P2 0
scalar HighwayScenario1.node[83].nic.phy80211p busyTime 0.011625729093081
scalar HighwayScenario1.node[83].nic.mac1609_4 ReceivedUnicastPackets 0
scalar HighwayScenario1.node[83].nic.mac1609_4 ReceivedBroadcasts 1269
scalar HighwayScenario1.node[83].nic.mac1609_4 SentPackets 151
scalar HighwayScenario1.node[83].nic.mac1609_4 SNIRLostPackets 102
scalar HighwayScenario1.node[83].nic.mac1609_4 RXTXLostPackets 0
scalar HighwayScenario1.node[83].nic.mac1609_4 TotalLostPackets 102
scalar HighwayScenario1.node[83].nic.mac1609_4 DroppedPacketsInMac 0
scalar HighwayScenario1.node[83].nic.mac1609_4 TooLittleTime 0
scalar HighwayScenario1.node[83].nic.mac1609_4 TimesIntoBackoff 151
scalar HighwayScenario1.node[83].nic.mac1609_4 SlotsBackoff 235
scalar HighwayScenario1.node[83].nic.mac1609_4 NumInternalContention 0
scalar HighwayScenario1.node[83].nic.mac1609_4 totalBusyTime 0.188439
scalar HighwayScenario1.node[83].veinsmobility startTime 165
scalar HighwayScenario1.node[83].veinsmobility totalTime 15
scalar HighwayScenario1.node[83].veinsmobility stopTime 180.09479522488
scalar HighwayScenario1.node[83].veinsmobility minSpeed 28.778539071287
scalar HighwayScenario1.node[83].veinsmobility maxSpeed 29.929372668635
scalar HighwayScenario1.node[83].veinsmobility totalDistance 438.10464237089
scalar HighwayScenario1.node[83].veinsmobility totalCO2Emission 74.692891772055
scalar HighwayScenario1.node[84].appl generatedWSMs 0
scalar HighwayScenario1.node[84].appl receivedWSMs 0
scalar HighwayScenario1.node[84].appl generatedBSMs 131
scalar HighwayScenario1.node[84].appl receivedBSMs 1049
scalar HighwayScenario1.node[84].appl generatedWSAs 0
scalar HighwayScenario1.node[84].appl receivedWSAs 0
scalar HighwayScenario1.node[84].appl delayBSM_P1 0.00013617053987417
scalar HighwayScenario1.node[84].appl delayBSM_P2 0
scalar HighwayScenario1.node[84].nic.phy80211p busyTime 0.011250882313919
scalar HighwayScenario1.node[84].nic.mac1609_4 ReceivedUnicastPackets 0
scalar HighwayScenario1.node[84].nic.mac1609_4 ReceivedBroadcasts 1049
scalar HighwayScenario1.node[84].nic.mac1609_4 SentPackets 131
scalar HighwayScenario1.node[84].nic.mac1609_4 SNIRLostPackets 102
scalar HighwayScenario1.node[84].nic.mac1609_4 RXTXLostPackets 0
scalar HighwayScenario1.node[84].nic.mac1609_4 TotalLostPackets 102
scalar HighwayScenario1.node[84].nic.mac1609_4 DroppedPacketsInMac 0
scalar HighwayScenario1.node[84].nic.mac1609_4 TooLittleTime 0
scalar HighwayScenario1.node[84].nic.mac1609_4 TimesIntoBackoff 131
scalar HighwayScenario1.node[84].nic.mac1609_4 SlotsBackoff 185
scalar HighwayScenario1.node[84].nic.mac1609_4 NumInternalContention 0
scalar HighwayScenario1.node[84].nic.mac1609_4 totalBusyTime 0.157699
scalar HighwayScenario1.node[84].veinsmobility startTime 167
scalar HighwayScenario1.node[84].veinsmobility totalTime 13
scalar HighwayScenario1.node[84].veinsmobility stopTime 180.09479522488
scalar HighwayScenario1.node[84].veinsmobility minSpeed 30.60406095378
scalar HighwayScenario1.node[84].veinsmobility maxSpeed 33.827547023592
scalar HighwayScenario1.node[84].veinsmobility totalDistance 426.47204726397
scalar HighwayScenario1.node[84].veinsmobility totalCO2Emission 81.970972352231
scalar HighwayScenario1.node[85].appl generatedWSMs 0
scalar HighwayScenario1.node[85].appl receivedWSMs 0
scalar HighwayScenario1.node[85].appl generatedBSMs 111
scalar HighwayScenario1.node[85].appl receivedBSMs 818
scalar HighwayScenario1.node[85].appl generatedWSAs 0
scalar HighwayScenario1.node[85].appl receivedWSAs 0
scalar HighwayScenario1.node[85].appl delayBSM_P1 0.00013616329146577
scalar HighwayScenario1.node[85].appl delayBSM_P2 0
scalar HighwayScenario1.node[85].nic.phy80211p busyTime 0.010613985892765
scalar HighwayScenario1.node[85].nic.mac1609_4 ReceivedUnicastPackets 0
scalar HighwayScenario1.node[85].nic.mac1609_4 ReceivedBroadcasts 818
scalar HighwayScenario1.node[85].nic.mac1609_4 SentPackets 111
scalar HighwayScenario1.node[85].nic.mac1609_4 SNIRLostPackets 102
scalar HighwayScenario1.node[85].nic.mac1609_4 RXTXLostPackets 0
scalar HighwayScenario1.node[85].nic.mac1609_4 TotalLostPackets 102
scalar HighwayScenario1.node[85].nic.mac1609_4 DroppedPacketsInMac 0
scalar HighwayScenario1.node[85].nic.mac1609_4 TooLittleTime 0
scalar HighwayScenario1.node[85].nic.mac1609_4 TimesIntoBackoff 111
scalar HighwayScenario1.node[85].nic.mac1609_4 SlotsBackoff 170
scalar HighwayScenario1.node[85].nic.mac1609_4 NumInternalContention 0
scalar HighwayScenario1.node[85].nic.mac1609_4 totalBusyTime 0.125551
scalar HighwayScenario1.node[85].veinsmobility startTime 169
scalar HighwayScenario1.node[85].veinsmobility totalTime 11
scalar HighwayScenario1.node[85].veinsmobility stopTime 180.09479522488
scalar HighwayScenario1.node[85].veinsmobility minSpeed 29.91425901279
scalar HighwayScenario1.node[85].veinsmobility maxSpeed 31.056963507204
scalar HighwayScenario1.node[85].veinsmobility totalDistance 333.8554441982
scalar HighwayScenario1.node[85].veinsmobility totalCO2Emission 52.15044494655
scalar HighwayScenario1.node[86].appl generatedWSMs 0
scalar HighwayScenario1.node[86].appl receivedWSMs 0
scalar HighwayScenario1.node[86].appl generatedBSMs 91
scalar HighwayScenario1.node[86].appl receivedBSMs 607
scalar HighwayScenario1.node[86].appl generatedWSAs 0
scalar HighwayScenario1.node[86].appl receivedWSAs 0
scalar HighwayScenario1.node[86].appl delayBSM_P1 0.00013606512789292
scalar HighwayScenario1.node[86].appl delayBSM_P2 0
scalar HighwayScenario1.node[86].nic.phy80211p busyTime 0.0099784544628039
scalar HighwayScenario1.node[86].nic.mac1609_4 ReceivedUnicastPackets 0
scalar HighwayScenario1.node[86].nic.mac1609_4 ReceivedBroadcasts 607
scalar HighwayScenario1.node[86].nic.mac1609_4 SentPackets 91
scalar HighwayScenario1.node[86].nic.mac1609_4 SNIRLostPackets 102
scalar HighwayScenario1.node[86].nic.mac1609_4 RXTXLostPackets 0
scalar HighwayScenario1.node[86].nic.mac1609_4 TotalLostPackets 102
scalar HighwayScenario1.node[86].nic.mac1609_4 DroppedPacketsInMac 0
scalar HighwayScenario1.node[86].nic.mac1609_4 TooLittleTime 0
scalar HighwayScenario1.node[86].nic.mac1609_4 TimesIntoBackoff 91
scalar HighwayScenario1.node[86].nic.mac1609_4 SlotsBackoff 144
scalar HighwayScenario1.node[86].nic.mac1609_4 NumInternalContention 0
scalar HighwayScenario1.node[86].nic.mac1609_4 totalBusyTime 0.095963
scalar HighwayScenario1.node[86].veinsmobility startTime 171
scalar HighwayScenario1.node[86].veinsmobility totalTime 9
scalar HighwayScenario1.node[86].veinsmobility stopTime 180.09479522488
scalar HighwayScenario1.node[86].veinsmobility minSpeed 33.351747006431
scalar HighwayScenario1.node[86].veinsmobility maxSpeed 34.402485437944
scalar HighwayScenario1.node[86].veinsmobility totalDistance 305.88894139103
scalar HighwayScenario1.node[86].veinsmobility totalCO2Emission 45.154104837393
scalar HighwayScenario1.node[87].appl generatedWSMs 0
scalar HighwayScenario1.node[87].appl receivedWSMs 0
scalar HighwayScenario1.node[87].appl generatedBSMs 71
scalar HighwayScenario1.node[87].appl receivedBSMs 447
scalar HighwayScenario1.node[87].appl generatedWSAs 0
scalar HighwayScenario1.node[87].appl receivedWSAs 0
scalar HighwayScenario1.node[87].appl delayBSM_P1 0.00013607073367338
scalar HighwayScenario1.node[87].appl delayBSM_P2 0
scalar HighwayScenario1.node[87].nic.phy80211p busyTime 0.0080645033699278
scalar HighwayScenario1.node[87].nic.mac1609_4 ReceivedUnicastPackets 0
scalar HighwayScenario1.node[87].nic.mac1609_4 ReceivedBroadcasts 447
scalar HighwayScenario1.node[87].nic.mac1609_4 SentPackets 71
scalar HighwayScenario1.node[87].nic.mac1609_4 SNIRLostPackets 0
scalar HighwayScenario1.node[87].nic.mac1609_4 RXTXLostPackets 0
scalar HighwayScenario1.node[87].nic.mac1609_4 TotalLostPackets 0
scalar HighwayScenario1.node[87].nic.mac1609_4 DroppedPacketsInMac 0
scalar HighwayScenario1.node[87].nic.mac1609_4 TooLittleTime 0
scalar HighwayScenario1.node[87].nic.mac1609_4 TimesIntoBackoff 71
scalar HighwayScenario1.node[87].nic.mac1609_4 SlotsBackoff 111
scalar HighwayScenario1.node[87].nic.mac1609_4 NumInternalContention 0
scalar HighwayScenario1.node[87].nic.mac1609_4 totalBusyTime 0.066375
scalar HighwayScenario1.node[87].veinsmobility startTime 173
scalar HighwayScenario1.node[87].veinsmobility totalTime 7
scalar HighwayScenario1.node[87].veinsmobility stopTime 180.09479522488
scalar HighwayScenario1.node[87].veinsmobility minSpeed 32.189498037431
scalar HighwayScenario1.node[87].veinsmobility maxSpeed 33.154375242692
scalar HighwayScenario1.node[87].veinsmobility totalDistance 229.54723850485
scalar HighwayScenario1.node[87].veinsmobility totalCO2Emission 35.418127732826
scalar HighwayScenario1.node[88].appl generatedWSMs 0
scalar HighwayScenario1.node[88].appl receivedWSMs 0
scalar HighwayScenario1.node[88].appl generatedBSMs 51
scalar HighwayScenario1.node[88].appl receivedBSMs 347
scalar HighwayScenario1.node[88].appl generatedWSAs 0
scalar HighwayScenario1.node[88].appl receivedWSAs 0
scalar HighwayScenario1.node[88].appl delayBSM_P1 0.00013612532439193
scalar HighwayScenario1.node[88].appl delayBSM_P2 0
scalar HighwayScenario1.node[88].nic.phy80211p busyTime 0.008717916626578
scalar HighwayScenario1.node[88].nic.mac1609_4 ReceivedUnicastPackets 0
scalar HighwayScenario1.node[88].nic.mac1609_4 ReceivedBroadcasts 347
scalar HighwayScenario1.node[88].nic.mac1609_4 SentPackets 51
scalar HighwayScenario1.node[88].nic.mac1609_4 SNIRLostPackets 0
scalar HighwayScenario1.node[88].nic.mac1609_4 RXTXLostPackets 0
scalar HighwayScenario1.node[88].nic.mac1609_4 TotalLostPackets 0
scalar HighwayScenario1.node[88].nic.mac1609_4 DroppedPacketsInMac 0
scalar HighwayScenario1.node[88].nic.mac1609_4 TooLittleTime 0
scalar HighwayScenario1.node[88].nic.mac1609_4 TimesIntoBackoff 51
scalar HighwayScenario1.node[88].nic.mac1609_4 SlotsBackoff 76
scalar HighwayScenario1.node[88].nic.mac1609_4 NumInternalContention 0
scalar HighwayScenario1.node[88].nic.mac1609_4 totalBusyTime 0.050995
scalar HighwayScenario1.node[88].veinsmobility startTime 175
scalar HighwayScenario1.node[88].veinsmobility totalTime 5
scalar HighwayScenario1.node[88].veinsmobility stopTime 180.09479522488
scalar HighwayScenario1.node[88].veinsmobility minSpeed 33.558590067189
scalar HighwayScenario1.node[88].veinsmobility maxSpeed 34.303961407206
scalar HighwayScenario1.node[88].veinsmobility totalDistance 169.71804233291
scalar HighwayScenario1.node[88].veinsmobility totalCO2Emission 30.290209348672
scalar HighwayScenario1.node[89].appl generatedWSMs 0
scalar HighwayScenario1.node[89].appl receivedWSMs 0
scalar HighwayScenario1.node[89].appl generatedBSMs 31
scalar HighwayScenario1.node[89].appl receivedBSMs 196
scalar HighwayScenario1.node[89].appl generatedWSAs 0
scalar HighwayScenario1.node[89].appl receivedWSAs 0
scalar HighwayScenario1.node[89].appl delayBSM_P1 0.00013627571770408
scalar HighwayScenario1.node[89].appl delayBSM_P2 0
scalar HighwayScenario1.node[89].nic.phy80211p busyTime 0.0081065137358045
scalar HighwayScenario1.node[89].nic.mac1609_4 ReceivedUnicastPackets 0
scalar HighwayScenario1.node[89].nic.mac1609_4 ReceivedBroadcasts 196
scalar HighwayScenario1.node[89].nic.mac1609_4 SentPackets 31
scalar HighwayScenario1.node[89].nic.mac1609_4 SNIRLostPackets 0
scalar HighwayScenario1.node[89].nic.mac1609_4 RXTXLostPackets 0
scalar HighwayScenario1.node[89].nic.mac1609_4 TotalLostPackets 0
scalar HighwayScenario1.node[89].nic.mac1609_4 DroppedPacketsInMac 0
scalar HighwayScenario1.node[89].nic.mac1609_4 TooLittleTime 0
scalar HighwayScenario1.node[89].nic.mac1609_4 TimesIntoBackoff 31
scalar HighwayScenario1.node[89].nic.mac1609_4 SlotsBackoff 42
scalar HighwayScenario1.node[89].nic.mac1609_4 NumInternalContention 0
scalar HighwayScenario1.node[89].nic.mac1609_4 totalBusyTime 0.029087
scalar HighwayScenario1.node[89].veinsmobility startTime 177
scalar HighwayScenario1.node[89].veinsmobility totalTime 3
scalar HighwayScenario1.node[89].veinsmobility stopTime 180.09479522488
scalar HighwayScenario1.node[89].veinsmobility minSpeed 30.545883305034
scalar HighwayScenario1.node[89].veinsmobility maxSpeed 31.341793579353
scalar HighwayScenario1.node[89].veinsmobility totalDistance 92.884381029618
scalar HighwayScenario1.node[89].veinsmobility totalCO2Emission 14.256404044455
scalar HighwayScenario1.node[90].appl generatedWSMs 0
scalar HighwayScenario1.node[90].appl receivedWSMs 0
scalar HighwayScenario1.node[90].appl generatedBSMs 10
scalar HighwayScenario1.node[90].appl receivedBSMs 66
scalar HighwayScenario1.node[90].appl generatedWSAs 0
scalar HighwayScenario1.node[90].appl receivedWSAs 0
scalar HighwayScenario1.node[90].appl delayBSM_P1 0.00013616255313636
scalar HighwayScenario1.node[90].appl delayBSM_P2 0
scalar HighwayScenario1.node[90].nic.phy80211p busyTime 0.0077165115521199
scalar HighwayScenario1.node[90].nic.mac1609_4 ReceivedUnicastPackets 0
scalar HighwayScenario1.node[90].nic.mac1609_4 ReceivedBroadcasts 66
scalar HighwayScenario1.node[90].nic.mac1609_4 SentPackets 10
scalar HighwayScenario1.node[90].nic.mac1609_4 SNIRLostPackets 0
scalar HighwayScenario1.node[90].nic.mac1609_4 RXTXLostPackets 0
scalar HighwayScenario1.node[90].nic.mac1609_4 TotalLostPackets 0
scalar HighwayScenario1.node[90].nic.mac1609_4 DroppedPacketsInMac 0
scalar HighwayScenario1.node[90].nic.mac1609_4 TooLittleTime 0
scalar HighwayScenario1.node[90].nic.mac1609_4 TimesIntoBackoff 10
scalar HighwayScenario1.node[90].nic.mac1609_4 SlotsBackoff 15
scalar HighwayScenario1.node[90].nic.mac1609_4 NumInternalContention 0
scalar HighwayScenario1.node[90].nic.mac1609_4 totalBusyTime 0.009738
scalar HighwayScenario1.node[90].veinsmobility startTime 179
scalar HighwayScenario1.node[90].veinsmobility totalTime 1
scalar HighwayScenario1.node[90].veinsmobility stopTime 180.09479522488
scalar HighwayScenario1.node[90].veinsmobility minSpeed 33.025863560911
scalar HighwayScenario1.node[90].veinsmobility maxSpeed 33.025863560911
scalar HighwayScenario1.node[90].veinsmobility totalDistance 33.025863560911
scalar HighwayScenario1.node[90].veinsmobility totalCO2Emission 0

