version 2
run Scenario2_722B-0-20180429-00:02:34-4132
attr configname Scenario2_722B
attr datetime 20180429-00:02:34
attr experiment Scenario2_722B
attr inifile omnetpp.ini
attr iterationvars ""
attr iterationvarsf ""
attr measurement ""
attr network HighwayScenario1
attr processid 4132
attr repetition 0
attr replication #0
attr resultdir results
attr runnumber 0
attr seedset 0
param *.ambulanceNode[*].applType "\"AmbulanceAppLayer\""
param *.ambulanceNode[*].appl.messageLength 722
param *.ambulanceNode[*].appl.signDelay 0.0008
param *.ambulanceNode[*].appl.verifyDelay 0.0030
param *.node[*].applType "\"NormalAppLayer\""
param *.node[*].appl.messageLength 622
param *.node[*].appl.headerLength "80 bit"
param *.node[*].appl.sendBeacons true
param *.node[*].appl.dataOnSch false
param *.node[*].appl.beaconInterval 0.1s
param *.node[*].appl.signDelay 0.0008
param *.node[*].appl.verifyDelay 0.0030
param **.debug false
param **.coreDebug false
param *.playgroundSizeX 5500m
param *.playgroundSizeY 500m
param *.playgroundSizeZ 50m
param *.annotations.draw false
param *.obstacles.debug false
param *.manager.updateInterval 1s
param *.manager.host "\"localhost\""
param *.manager.port 9999
param *.manager.autoShutdown true
param *.manager.launchConfig "xmldoc(\"highway.launchd.xml\")"
param *.connectionManager.sendDirect true
param *.connectionManager.maxInterfDist 2600m
param *.connectionManager.drawMaxIntfDist false
param *.**.nic.mac1609_4.useServiceChannel false
param *.**.nic.mac1609_4.txPower 20mW
param *.**.nic.mac1609_4.bitrate 6Mbps
param *.**.nic.phy80211p.sensitivity -89dBm
param *.**.nic.phy80211p.useThermalNoise true
param *.**.nic.phy80211p.thermalNoise -110dBm
param *.**.nic.phy80211p.decider "xmldoc(\"config.xml\")"
param *.**.nic.phy80211p.analogueModels "xmldoc(\"config.xml\")"
param *.**.nic.phy80211p.usePropagationDelay true
param *.**.nic.phy80211p.antenna "xmldoc(\"antenna.xml\", \"/root/Antenna[@id='monopole']\")"
param *.manager.moduleType "\"ambulance=org.car2x.veins.nodes.Car attacker=org.car2x.veins.nodes.Car *=org.car2x.veins.nodes.Car\""
param *.manager.moduleName "\"ambulance=ambulanceNode attacker=attackerNode *=node\""
param *.node[*].veinsmobilityType.debug true
param *.node[*].veinsmobility.x 0
param *.node[*].veinsmobility.y 0
param *.node[*].veinsmobility.z 1.895
param *.ambulanceNode[*].veinsmobilityType.debug true
param *.ambulanceNode[*].veinsmobility.x 0
param *.ambulanceNode[*].veinsmobility.y 0
param *.ambulanceNode[*].veinsmobility.z 1.895
param *.attackerNode[*].veinsmobilityType.debug true
param *.attackerNode[*].veinsmobility.x 0
param *.attackerNode[*].veinsmobility.y 0
param *.attackerNode[*].veinsmobility.z 1.895

vector 0 HighwayScenario1.node[0].veinsmobility posx ETV
vector 1 HighwayScenario1.node[0].veinsmobility posy ETV
vector 2 HighwayScenario1.node[0].veinsmobility speed ETV
vector 3 HighwayScenario1.node[1].veinsmobility posx ETV
vector 4 HighwayScenario1.node[1].veinsmobility posy ETV
vector 5 HighwayScenario1.node[0].veinsmobility acceleration ETV
vector 6 HighwayScenario1.node[0].veinsmobility co2emission ETV
vector 7 HighwayScenario1.node[1].veinsmobility speed ETV
vector 8 HighwayScenario1.node[2].veinsmobility posx ETV
vector 9 HighwayScenario1.node[2].veinsmobility posy ETV
vector 10 HighwayScenario1.node[1].veinsmobility acceleration ETV
vector 11 HighwayScenario1.node[1].veinsmobility co2emission ETV
vector 12 HighwayScenario1.node[2].veinsmobility speed ETV
vector 13 HighwayScenario1.node[3].veinsmobility posx ETV
vector 14 HighwayScenario1.node[3].veinsmobility posy ETV
vector 15 HighwayScenario1.node[2].veinsmobility acceleration ETV
vector 16 HighwayScenario1.node[2].veinsmobility co2emission ETV
vector 17 HighwayScenario1.node[3].veinsmobility speed ETV
vector 18 HighwayScenario1.node[4].veinsmobility posx ETV
vector 19 HighwayScenario1.node[4].veinsmobility posy ETV
vector 20 HighwayScenario1.node[3].veinsmobility acceleration ETV
vector 21 HighwayScenario1.node[3].veinsmobility co2emission ETV
vector 22 HighwayScenario1.node[4].veinsmobility speed ETV
vector 23 HighwayScenario1.node[5].veinsmobility posx ETV
vector 24 HighwayScenario1.node[5].veinsmobility posy ETV
vector 25 HighwayScenario1.node[4].veinsmobility acceleration ETV
vector 26 HighwayScenario1.node[4].veinsmobility co2emission ETV
vector 27 HighwayScenario1.node[5].veinsmobility speed ETV
vector 28 HighwayScenario1.node[6].veinsmobility posx ETV
vector 29 HighwayScenario1.node[6].veinsmobility posy ETV
vector 30 HighwayScenario1.node[5].veinsmobility acceleration ETV
vector 31 HighwayScenario1.node[5].veinsmobility co2emission ETV
vector 32 HighwayScenario1.node[6].veinsmobility speed ETV
vector 33 HighwayScenario1.node[7].veinsmobility posx ETV
vector 34 HighwayScenario1.node[7].veinsmobility posy ETV
vector 35 HighwayScenario1.node[6].veinsmobility acceleration ETV
vector 36 HighwayScenario1.node[6].veinsmobility co2emission ETV
vector 37 HighwayScenario1.node[7].veinsmobility speed ETV
vector 38 HighwayScenario1.node[8].veinsmobility posx ETV
vector 39 HighwayScenario1.node[8].veinsmobility posy ETV
vector 40 HighwayScenario1.node[7].veinsmobility acceleration ETV
vector 41 HighwayScenario1.node[7].veinsmobility co2emission ETV
vector 42 HighwayScenario1.node[8].veinsmobility speed ETV
vector 43 HighwayScenario1.node[9].veinsmobility posx ETV
vector 44 HighwayScenario1.node[9].veinsmobility posy ETV
vector 45 HighwayScenario1.node[8].veinsmobility acceleration ETV
vector 46 HighwayScenario1.node[8].veinsmobility co2emission ETV
vector 47 HighwayScenario1.node[9].veinsmobility speed ETV
vector 48 HighwayScenario1.node[10].veinsmobility posx ETV
vector 49 HighwayScenario1.node[10].veinsmobility posy ETV
vector 50 HighwayScenario1.node[9].veinsmobility acceleration ETV
vector 51 HighwayScenario1.node[9].veinsmobility co2emission ETV
vector 52 HighwayScenario1.node[10].veinsmobility speed ETV
vector 53 HighwayScenario1.node[11].veinsmobility posx ETV
vector 54 HighwayScenario1.node[11].veinsmobility posy ETV
vector 55 HighwayScenario1.node[10].veinsmobility acceleration ETV
vector 56 HighwayScenario1.node[10].veinsmobility co2emission ETV
vector 57 HighwayScenario1.node[11].veinsmobility speed ETV
vector 58 HighwayScenario1.node[12].veinsmobility posx ETV
vector 59 HighwayScenario1.node[12].veinsmobility posy ETV
vector 60 HighwayScenario1.node[11].veinsmobility acceleration ETV
vector 61 HighwayScenario1.node[11].veinsmobility co2emission ETV
vector 62 HighwayScenario1.node[12].veinsmobility speed ETV
vector 63 HighwayScenario1.node[13].veinsmobility posx ETV
vector 64 HighwayScenario1.node[13].veinsmobility posy ETV
vector 65 HighwayScenario1.node[12].veinsmobility acceleration ETV
vector 66 HighwayScenario1.node[12].veinsmobility co2emission ETV
vector 67 HighwayScenario1.node[13].veinsmobility speed ETV
vector 68 HighwayScenario1.node[14].veinsmobility posx ETV
vector 69 HighwayScenario1.node[14].veinsmobility posy ETV
vector 70 HighwayScenario1.node[13].veinsmobility acceleration ETV
vector 71 HighwayScenario1.node[13].veinsmobility co2emission ETV
vector 72 HighwayScenario1.node[14].veinsmobility speed ETV
vector 73 HighwayScenario1.node[15].veinsmobility posx ETV
vector 74 HighwayScenario1.node[15].veinsmobility posy ETV
vector 75 HighwayScenario1.node[14].veinsmobility acceleration ETV
vector 76 HighwayScenario1.node[14].veinsmobility co2emission ETV
vector 77 HighwayScenario1.node[15].veinsmobility speed ETV
vector 78 HighwayScenario1.node[16].veinsmobility posx ETV
vector 79 HighwayScenario1.node[16].veinsmobility posy ETV
vector 80 HighwayScenario1.node[15].veinsmobility acceleration ETV
vector 81 HighwayScenario1.node[15].veinsmobility co2emission ETV
vector 82 HighwayScenario1.node[16].veinsmobility speed ETV
vector 83 HighwayScenario1.node[17].veinsmobility posx ETV
vector 84 HighwayScenario1.node[17].veinsmobility posy ETV
vector 85 HighwayScenario1.node[16].veinsmobility acceleration ETV
vector 86 HighwayScenario1.node[16].veinsmobility co2emission ETV
vector 87 HighwayScenario1.node[17].veinsmobility speed ETV
vector 88 HighwayScenario1.node[18].veinsmobility posx ETV
vector 89 HighwayScenario1.node[18].veinsmobility posy ETV
vector 90 HighwayScenario1.node[17].veinsmobility acceleration ETV
vector 91 HighwayScenario1.node[17].veinsmobility co2emission ETV
vector 92 HighwayScenario1.node[18].veinsmobility speed ETV
vector 93 HighwayScenario1.node[19].veinsmobility posx ETV
vector 94 HighwayScenario1.node[19].veinsmobility posy ETV
vector 95 HighwayScenario1.node[18].veinsmobility acceleration ETV
vector 96 HighwayScenario1.node[18].veinsmobility co2emission ETV
vector 97 HighwayScenario1.node[19].veinsmobility speed ETV
vector 98 HighwayScenario1.node[20].veinsmobility posx ETV
vector 99 HighwayScenario1.node[20].veinsmobility posy ETV
vector 100 HighwayScenario1.node[19].veinsmobility acceleration ETV
vector 101 HighwayScenario1.node[19].veinsmobility co2emission ETV
vector 102 HighwayScenario1.node[20].veinsmobility speed ETV
vector 103 HighwayScenario1.node[21].veinsmobility posx ETV
vector 104 HighwayScenario1.node[21].veinsmobility posy ETV
vector 105 HighwayScenario1.node[20].veinsmobility acceleration ETV
vector 106 HighwayScenario1.node[20].veinsmobility co2emission ETV
vector 107 HighwayScenario1.node[21].veinsmobility speed ETV
vector 108 HighwayScenario1.node[22].veinsmobility posx ETV
vector 109 HighwayScenario1.node[22].veinsmobility posy ETV
vector 110 HighwayScenario1.node[21].veinsmobility acceleration ETV
vector 111 HighwayScenario1.node[21].veinsmobility co2emission ETV
vector 112 HighwayScenario1.node[22].veinsmobility speed ETV
vector 113 HighwayScenario1.node[23].veinsmobility posx ETV
vector 114 HighwayScenario1.node[23].veinsmobility posy ETV
vector 115 HighwayScenario1.node[22].veinsmobility acceleration ETV
vector 116 HighwayScenario1.node[22].veinsmobility co2emission ETV
vector 117 HighwayScenario1.node[23].veinsmobility speed ETV
vector 118 HighwayScenario1.node[24].veinsmobility posx ETV
vector 119 HighwayScenario1.node[24].veinsmobility posy ETV
vector 120 HighwayScenario1.node[23].veinsmobility acceleration ETV
vector 121 HighwayScenario1.node[23].veinsmobility co2emission ETV
vector 122 HighwayScenario1.node[24].veinsmobility speed ETV
vector 123 HighwayScenario1.node[25].veinsmobility posx ETV
vector 124 HighwayScenario1.node[25].veinsmobility posy ETV
vector 125 HighwayScenario1.node[24].veinsmobility acceleration ETV
vector 126 HighwayScenario1.node[24].veinsmobility co2emission ETV
vector 127 HighwayScenario1.node[25].veinsmobility speed ETV
vector 128 HighwayScenario1.node[26].veinsmobility posx ETV
vector 129 HighwayScenario1.node[26].veinsmobility posy ETV
vector 130 HighwayScenario1.node[25].veinsmobility acceleration ETV
vector 131 HighwayScenario1.node[25].veinsmobility co2emission ETV
vector 132 HighwayScenario1.node[26].veinsmobility speed ETV
vector 133 HighwayScenario1.node[27].veinsmobility posx ETV
vector 134 HighwayScenario1.node[27].veinsmobility posy ETV
vector 135 HighwayScenario1.node[26].veinsmobility acceleration ETV
vector 136 HighwayScenario1.node[26].veinsmobility co2emission ETV
vector 137 HighwayScenario1.node[27].veinsmobility speed ETV
vector 138 HighwayScenario1.node[28].veinsmobility posx ETV
vector 139 HighwayScenario1.node[28].veinsmobility posy ETV
vector 140 HighwayScenario1.node[27].veinsmobility acceleration ETV
vector 141 HighwayScenario1.node[27].veinsmobility co2emission ETV
vector 142 HighwayScenario1.node[28].veinsmobility speed ETV
vector 143 HighwayScenario1.node[29].veinsmobility posx ETV
vector 144 HighwayScenario1.node[29].veinsmobility posy ETV
vector 145 HighwayScenario1.node[28].veinsmobility acceleration ETV
vector 146 HighwayScenario1.node[28].veinsmobility co2emission ETV
vector 147 HighwayScenario1.node[29].veinsmobility speed ETV
vector 148 HighwayScenario1.node[30].veinsmobility posx ETV
vector 149 HighwayScenario1.node[30].veinsmobility posy ETV
vector 150 HighwayScenario1.node[29].veinsmobility acceleration ETV
vector 151 HighwayScenario1.node[29].veinsmobility co2emission ETV
vector 152 HighwayScenario1.node[30].veinsmobility speed ETV
vector 153 HighwayScenario1.node[31].veinsmobility posx ETV
vector 154 HighwayScenario1.node[31].veinsmobility posy ETV
vector 155 HighwayScenario1.node[30].veinsmobility acceleration ETV
vector 156 HighwayScenario1.node[30].veinsmobility co2emission ETV
vector 157 HighwayScenario1.node[31].veinsmobility speed ETV
vector 158 HighwayScenario1.node[32].veinsmobility posx ETV
vector 159 HighwayScenario1.node[32].veinsmobility posy ETV
vector 160 HighwayScenario1.node[31].veinsmobility acceleration ETV
vector 161 HighwayScenario1.node[31].veinsmobility co2emission ETV
vector 162 HighwayScenario1.node[32].veinsmobility speed ETV
vector 163 HighwayScenario1.node[33].veinsmobility posx ETV
vector 164 HighwayScenario1.node[33].veinsmobility posy ETV
vector 165 HighwayScenario1.node[32].veinsmobility acceleration ETV
vector 166 HighwayScenario1.node[32].veinsmobility co2emission ETV
vector 167 HighwayScenario1.node[33].veinsmobility speed ETV
vector 168 HighwayScenario1.node[34].veinsmobility posx ETV
vector 169 HighwayScenario1.node[34].veinsmobility posy ETV
vector 170 HighwayScenario1.node[33].veinsmobility acceleration ETV
vector 171 HighwayScenario1.node[33].veinsmobility co2emission ETV
vector 172 HighwayScenario1.node[34].veinsmobility speed ETV
vector 173 HighwayScenario1.node[35].veinsmobility posx ETV
vector 174 HighwayScenario1.node[35].veinsmobility posy ETV
vector 175 HighwayScenario1.node[34].veinsmobility acceleration ETV
vector 176 HighwayScenario1.node[34].veinsmobility co2emission ETV
vector 177 HighwayScenario1.ambulanceNode[36].veinsmobility posx ETV
vector 178 HighwayScenario1.ambulanceNode[36].veinsmobility posy ETV
vector 179 HighwayScenario1.node[35].veinsmobility speed ETV
vector 180 HighwayScenario1.node[37].veinsmobility posx ETV
vector 181 HighwayScenario1.node[37].veinsmobility posy ETV
vector 182 HighwayScenario1.node[35].veinsmobility acceleration ETV
vector 183 HighwayScenario1.node[35].veinsmobility co2emission ETV
vector 184 HighwayScenario1.ambulanceNode[36].veinsmobility speed ETV
vector 185 HighwayScenario1.ambulanceNode[36].veinsmobility acceleration ETV
vector 186 HighwayScenario1.ambulanceNode[36].veinsmobility co2emission ETV
vector 187 HighwayScenario1.node[37].veinsmobility speed ETV
vector 188 HighwayScenario1.node[38].veinsmobility posx ETV
vector 189 HighwayScenario1.node[38].veinsmobility posy ETV
vector 190 HighwayScenario1.node[37].veinsmobility acceleration ETV
vector 191 HighwayScenario1.node[37].veinsmobility co2emission ETV
vector 192 HighwayScenario1.node[38].veinsmobility speed ETV
vector 193 HighwayScenario1.node[39].veinsmobility posx ETV
vector 194 HighwayScenario1.node[39].veinsmobility posy ETV
vector 195 HighwayScenario1.node[38].veinsmobility acceleration ETV
vector 196 HighwayScenario1.node[38].veinsmobility co2emission ETV
vector 197 HighwayScenario1.node[39].veinsmobility speed ETV
vector 198 HighwayScenario1.node[40].veinsmobility posx ETV
vector 199 HighwayScenario1.node[40].veinsmobility posy ETV
vector 200 HighwayScenario1.node[39].veinsmobility acceleration ETV
vector 201 HighwayScenario1.node[39].veinsmobility co2emission ETV
vector 202 HighwayScenario1.node[40].veinsmobility speed ETV
vector 203 HighwayScenario1.node[41].veinsmobility posx ETV
vector 204 HighwayScenario1.node[41].veinsmobility posy ETV
vector 205 HighwayScenario1.node[40].veinsmobility acceleration ETV
vector 206 HighwayScenario1.node[40].veinsmobility co2emission ETV
vector 207 HighwayScenario1.node[41].veinsmobility speed ETV
vector 208 HighwayScenario1.node[42].veinsmobility posx ETV
vector 209 HighwayScenario1.node[42].veinsmobility posy ETV
vector 210 HighwayScenario1.node[41].veinsmobility acceleration ETV
vector 211 HighwayScenario1.node[41].veinsmobility co2emission ETV
vector 212 HighwayScenario1.node[42].veinsmobility speed ETV
vector 213 HighwayScenario1.node[43].veinsmobility posx ETV
vector 214 HighwayScenario1.node[43].veinsmobility posy ETV
vector 215 HighwayScenario1.node[42].veinsmobility acceleration ETV
vector 216 HighwayScenario1.node[42].veinsmobility co2emission ETV
vector 217 HighwayScenario1.node[43].veinsmobility speed ETV
vector 218 HighwayScenario1.node[44].veinsmobility posx ETV
vector 219 HighwayScenario1.node[44].veinsmobility posy ETV
vector 220 HighwayScenario1.node[43].veinsmobility acceleration ETV
vector 221 HighwayScenario1.node[43].veinsmobility co2emission ETV
vector 222 HighwayScenario1.node[44].veinsmobility speed ETV
vector 223 HighwayScenario1.node[45].veinsmobility posx ETV
vector 224 HighwayScenario1.node[45].veinsmobility posy ETV
vector 225 HighwayScenario1.node[44].veinsmobility acceleration ETV
vector 226 HighwayScenario1.node[44].veinsmobility co2emission ETV
vector 227 HighwayScenario1.node[45].veinsmobility speed ETV
vector 228 HighwayScenario1.node[46].veinsmobility posx ETV
vector 229 HighwayScenario1.node[46].veinsmobility posy ETV
vector 230 HighwayScenario1.node[45].veinsmobility acceleration ETV
vector 231 HighwayScenario1.node[45].veinsmobility co2emission ETV
vector 232 HighwayScenario1.node[46].veinsmobility speed ETV
vector 233 HighwayScenario1.node[47].veinsmobility posx ETV
vector 234 HighwayScenario1.node[47].veinsmobility posy ETV
vector 235 HighwayScenario1.node[46].veinsmobility acceleration ETV
vector 236 HighwayScenario1.node[46].veinsmobility co2emission ETV
vector 237 HighwayScenario1.node[47].veinsmobility speed ETV
vector 238 HighwayScenario1.node[48].veinsmobility posx ETV
vector 239 HighwayScenario1.node[48].veinsmobility posy ETV
vector 240 HighwayScenario1.node[47].veinsmobility acceleration ETV
vector 241 HighwayScenario1.node[47].veinsmobility co2emission ETV
vector 242 HighwayScenario1.node[48].veinsmobility speed ETV
vector 243 HighwayScenario1.node[49].veinsmobility posx ETV
vector 244 HighwayScenario1.node[49].veinsmobility posy ETV
vector 245 HighwayScenario1.node[48].veinsmobility acceleration ETV
vector 246 HighwayScenario1.node[48].veinsmobility co2emission ETV
vector 247 HighwayScenario1.node[49].veinsmobility speed ETV
vector 248 HighwayScenario1.node[50].veinsmobility posx ETV
vector 249 HighwayScenario1.node[50].veinsmobility posy ETV
vector 250 HighwayScenario1.node[49].veinsmobility acceleration ETV
vector 251 HighwayScenario1.node[49].veinsmobility co2emission ETV
vector 252 HighwayScenario1.node[50].veinsmobility speed ETV
vector 253 HighwayScenario1.node[51].veinsmobility posx ETV
vector 254 HighwayScenario1.node[51].veinsmobility posy ETV
vector 255 HighwayScenario1.node[50].veinsmobility acceleration ETV
vector 256 HighwayScenario1.node[50].veinsmobility co2emission ETV
vector 257 HighwayScenario1.node[51].veinsmobility speed ETV
vector 258 HighwayScenario1.node[52].veinsmobility posx ETV
vector 259 HighwayScenario1.node[52].veinsmobility posy ETV
vector 260 HighwayScenario1.node[51].veinsmobility acceleration ETV
vector 261 HighwayScenario1.node[51].veinsmobility co2emission ETV
vector 262 HighwayScenario1.node[52].veinsmobility speed ETV
vector 263 HighwayScenario1.node[53].veinsmobility posx ETV
vector 264 HighwayScenario1.node[53].veinsmobility posy ETV
vector 265 HighwayScenario1.node[52].veinsmobility acceleration ETV
vector 266 HighwayScenario1.node[52].veinsmobility co2emission ETV
vector 267 HighwayScenario1.node[53].veinsmobility speed ETV
vector 268 HighwayScenario1.node[54].veinsmobility posx ETV
vector 269 HighwayScenario1.node[54].veinsmobility posy ETV
vector 270 HighwayScenario1.node[53].veinsmobility acceleration ETV
vector 271 HighwayScenario1.node[53].veinsmobility co2emission ETV
vector 272 HighwayScenario1.node[54].veinsmobility speed ETV
vector 273 HighwayScenario1.node[55].veinsmobility posx ETV
vector 274 HighwayScenario1.node[55].veinsmobility posy ETV
vector 275 HighwayScenario1.node[54].veinsmobility acceleration ETV
vector 276 HighwayScenario1.node[54].veinsmobility co2emission ETV
vector 277 HighwayScenario1.node[55].veinsmobility speed ETV
vector 278 HighwayScenario1.node[56].veinsmobility posx ETV
vector 279 HighwayScenario1.node[56].veinsmobility posy ETV
vector 280 HighwayScenario1.node[55].veinsmobility acceleration ETV
vector 281 HighwayScenario1.node[55].veinsmobility co2emission ETV
vector 282 HighwayScenario1.node[56].veinsmobility speed ETV
vector 283 HighwayScenario1.node[57].veinsmobility posx ETV
vector 284 HighwayScenario1.node[57].veinsmobility posy ETV
vector 285 HighwayScenario1.node[56].veinsmobility acceleration ETV
vector 286 HighwayScenario1.node[56].veinsmobility co2emission ETV
vector 287 HighwayScenario1.node[57].veinsmobility speed ETV
vector 288 HighwayScenario1.node[58].veinsmobility posx ETV
vector 289 HighwayScenario1.node[58].veinsmobility posy ETV
vector 290 HighwayScenario1.node[57].veinsmobility acceleration ETV
vector 291 HighwayScenario1.node[57].veinsmobility co2emission ETV
vector 292 HighwayScenario1.node[58].veinsmobility speed ETV
vector 293 HighwayScenario1.node[59].veinsmobility posx ETV
vector 294 HighwayScenario1.node[59].veinsmobility posy ETV
vector 295 HighwayScenario1.node[58].veinsmobility acceleration ETV
vector 296 HighwayScenario1.node[58].veinsmobility co2emission ETV
vector 297 HighwayScenario1.node[59].veinsmobility speed ETV
vector 298 HighwayScenario1.node[60].veinsmobility posx ETV
vector 299 HighwayScenario1.node[60].veinsmobility posy ETV
vector 300 HighwayScenario1.node[59].veinsmobility acceleration ETV
vector 301 HighwayScenario1.node[59].veinsmobility co2emission ETV
vector 302 HighwayScenario1.node[60].veinsmobility speed ETV
vector 303 HighwayScenario1.node[61].veinsmobility posx ETV
vector 304 HighwayScenario1.node[61].veinsmobility posy ETV
vector 305 HighwayScenario1.node[60].veinsmobility acceleration ETV
vector 306 HighwayScenario1.node[60].veinsmobility co2emission ETV
vector 307 HighwayScenario1.node[61].veinsmobility speed ETV
vector 308 HighwayScenario1.node[62].veinsmobility posx ETV
vector 309 HighwayScenario1.node[62].veinsmobility posy ETV
vector 310 HighwayScenario1.node[61].veinsmobility acceleration ETV
vector 311 HighwayScenario1.node[61].veinsmobility co2emission ETV
vector 312 HighwayScenario1.node[62].veinsmobility speed ETV
vector 313 HighwayScenario1.node[63].veinsmobility posx ETV
vector 314 HighwayScenario1.node[63].veinsmobility posy ETV
vector 315 HighwayScenario1.node[62].veinsmobility acceleration ETV
vector 316 HighwayScenario1.node[62].veinsmobility co2emission ETV
vector 317 HighwayScenario1.node[63].veinsmobility speed ETV
vector 318 HighwayScenario1.node[64].veinsmobility posx ETV
vector 319 HighwayScenario1.node[64].veinsmobility posy ETV
vector 320 HighwayScenario1.node[63].veinsmobility acceleration ETV
vector 321 HighwayScenario1.node[63].veinsmobility co2emission ETV
vector 322 HighwayScenario1.node[64].veinsmobility speed ETV
vector 323 HighwayScenario1.node[65].veinsmobility posx ETV
vector 324 HighwayScenario1.node[65].veinsmobility posy ETV
vector 325 HighwayScenario1.node[64].veinsmobility acceleration ETV
vector 326 HighwayScenario1.node[64].veinsmobility co2emission ETV
vector 327 HighwayScenario1.node[65].veinsmobility speed ETV
vector 328 HighwayScenario1.node[66].veinsmobility posx ETV
vector 329 HighwayScenario1.node[66].veinsmobility posy ETV
vector 330 HighwayScenario1.node[65].veinsmobility acceleration ETV
vector 331 HighwayScenario1.node[65].veinsmobility co2emission ETV
vector 332 HighwayScenario1.node[66].veinsmobility speed ETV
vector 333 HighwayScenario1.node[67].veinsmobility posx ETV
vector 334 HighwayScenario1.node[67].veinsmobility posy ETV
vector 335 HighwayScenario1.node[66].veinsmobility acceleration ETV
vector 336 HighwayScenario1.node[66].veinsmobility co2emission ETV
vector 337 HighwayScenario1.node[67].veinsmobility speed ETV
vector 338 HighwayScenario1.node[68].veinsmobility posx ETV
vector 339 HighwayScenario1.node[68].veinsmobility posy ETV
vector 340 HighwayScenario1.node[67].veinsmobility acceleration ETV
vector 341 HighwayScenario1.node[67].veinsmobility co2emission ETV
vector 342 HighwayScenario1.node[68].veinsmobility speed ETV
vector 343 HighwayScenario1.node[69].veinsmobility posx ETV
vector 344 HighwayScenario1.node[69].veinsmobility posy ETV
vector 345 HighwayScenario1.node[68].veinsmobility acceleration ETV
vector 346 HighwayScenario1.node[68].veinsmobility co2emission ETV
vector 347 HighwayScenario1.node[69].veinsmobility speed ETV
vector 348 HighwayScenario1.node[70].veinsmobility posx ETV
vector 349 HighwayScenario1.node[70].veinsmobility posy ETV
vector 350 HighwayScenario1.node[69].veinsmobility acceleration ETV
vector 351 HighwayScenario1.node[69].veinsmobility co2emission ETV
vector 352 HighwayScenario1.node[70].veinsmobility speed ETV
vector 353 HighwayScenario1.node[71].veinsmobility posx ETV
vector 354 HighwayScenario1.node[71].veinsmobility posy ETV
vector 355 HighwayScenario1.node[70].veinsmobility acceleration ETV
vector 356 HighwayScenario1.node[70].veinsmobility co2emission ETV
vector 357 HighwayScenario1.node[71].veinsmobility speed ETV
vector 358 HighwayScenario1.node[72].veinsmobility posx ETV
vector 359 HighwayScenario1.node[72].veinsmobility posy ETV
vector 360 HighwayScenario1.node[71].veinsmobility acceleration ETV
vector 361 HighwayScenario1.node[71].veinsmobility co2emission ETV
vector 362 HighwayScenario1.node[72].veinsmobility speed ETV
vector 363 HighwayScenario1.node[73].veinsmobility posx ETV
vector 364 HighwayScenario1.node[73].veinsmobility posy ETV
vector 365 HighwayScenario1.node[72].veinsmobility acceleration ETV
vector 366 HighwayScenario1.node[72].veinsmobility co2emission ETV
vector 367 HighwayScenario1.node[73].veinsmobility speed ETV
vector 368 HighwayScenario1.node[74].veinsmobility posx ETV
vector 369 HighwayScenario1.node[74].veinsmobility posy ETV
vector 370 HighwayScenario1.node[73].veinsmobility acceleration ETV
vector 371 HighwayScenario1.node[73].veinsmobility co2emission ETV
vector 372 HighwayScenario1.node[74].veinsmobility speed ETV
vector 373 HighwayScenario1.node[75].veinsmobility posx ETV
vector 374 HighwayScenario1.node[75].veinsmobility posy ETV
vector 375 HighwayScenario1.node[74].veinsmobility acceleration ETV
vector 376 HighwayScenario1.node[74].veinsmobility co2emission ETV
vector 377 HighwayScenario1.node[75].veinsmobility speed ETV
6	184	3	5.7048709738187
6	485	4	3.5335996295472
6	786	5	5.8940658553922
6	1417	6	6.1412777054657
6	2048	7	8.1429881602435
6	3129	8	3.5723644095399
6	4210	9	11.389240806978
6	5861	10	4.7108077244723
6	7512	11	2.06410945459
6	9853	12	15.700067516907
6	12194	13	0.973
6	15265	14	9.7014019149392
6	18416	15	10.203889411714
6	22337	16	2.8674074686645
6	26258	17	9.8128105459153
6	30989	18	-2.0248547134695
6	35720	19	15.013274486058
6	41381	20	-0.42950011344453
6	46962	21	3.6203017673145
6	53513	22	12.033686704547
6	60064	23	7.2577200400589
6	67625	24	2.5404279742669
6	75186	25	5.4267642741175
6	83797	26	4.6166451919375
6	92408	27	14.42442360838
6	102109	28	4.2974587242077
6	111810	29	6.489993271128
6	122561	30	-0.16013175353015
6	133312	31	6.1239051111227
6	145153	32	10.846717815564
6	156994	33	9.301620065806
6	170045	34	-1.5471911125132
6	183096	35	10.5161277624
6	197397	36	9.7169731077307
6	211699	37	7.7280950710648
6	227199	38	4.1518799062378
6	242703	39	5.8531802604775
6	259534	40	4.3431324794361
6	276367	41	2.026801663438
6	294571	42	7.0349230232207
6	312666	43	4.061563551146
6	332172	44	12.107292012181
6	351456	45	8.2798623764298
6	372114	46	6.0567032212162
6	392690	47	2.420262958606
6	414687	48	10.264880798346
6	436762	49	6.3751340285586
6	460258	50	-1.306473270672
6	483758	51	6.6821896675697
6	508829	52	14.303579137871
6	533820	53	2.1134385401865
6	560498	54	7.9433535478639
6	587225	55	3.5943159004431
6	615516	56	10.659362294242
6	643807	57	7.8596524968532
6	673787	58	5.8550337751951
6	703770	59	3.20804223794
6	735354	60	6.3005263984639
6	767070	61	2.8343131284237
6	800561	62	11.302000875592
6	834053	63	-0.8793819898678
6	869274	64	7.523659352364
6	904576	65	4.7420994495213
6	941569	66	14.351539034138
6	978562	67	2.7526532639704
6	1017317	68	0.76845745677985
6	1056074	69	15.923394449822
6	1096670	70	0.973
6	1137213	71	8.1331810019343
6	1179708	72	5.8399535630894
6	1223269	73	8.8784920092914
6	1268807	74	4.1882357517505
6	1314357	75	7.6650347640085
6	1361818	76	2.3067617830733
6	1409026	77	11.644726099848
6	1458310	78	5.717427921357
6	1507576	79	4.9270408153809
6	1558693	80	5.5673611295408
6	1609755	81	7.6175490381242
6	1662769	82	2.0758898999774
6	1715669	83	7.8124623159034
6	1770565	84	11.216798823841
6	1825326	85	-0.56453575574142
6	1882428	86	7.1671219969202
6	1939408	87	12.656689745392
6	1999007	88	2.6501530438411
6	2058517	89	4.0135057696601
6	2120431	90	10.942886015852
6	2182333	91	6.2158908954125
6	2246873	92	0.35704688563911
6	2311437	93	8.7838866924413
6	2378467	94	9.3159243836174
6	2445417	95	-1.1738468996757
6	2514778	96	12.578478366089
6	2584131	97	2.7594148571391
6	2655934	98	5.4904220323876
6	2727544	99	11.509043117406
6	2801188	100	-0.98786342786125
6	2874307	101	7.6029581461106
6	2949716	102	9.8385574331313
6	3024965	103	10.403445324632
6	3102716	104	0.55489117322889
6	3180521	105	12.258612473254
6	3260638	106	2.5302987127383
6	3340387	107	5.5856348529413
6	3422559	108	6.1983861979518
6	3504543	109	3.9436573262468
6	3588899	110	11.996197135701
6	3672912	111	2.522267617617
6	3759269	112	8.4714933359038
6	3845093	113	7.2876633133145
6	3933548	114	2.0155738047643
6	4021826	115	2.4801113853694
6	4111540	116	10.499110605799
6	4201074	117	7.8428800531903
6	4292341	118	5.4425350939089
6	4382955	119	1.9756271932399
6	4475862	120	12.695330017555
6	4568568	121	6.6471961738682
6	4663655	122	-0.76426021167984
6	4758582	123	7.310483208507
6	4855710	124	5.9684449824172
6	4952588	125	9.3332347215102
6	5051609	126	9.4077941475567
6	5150342	127	1.3048525823612
6	5251756	128	8.6285407957697
6	5353189	129	0.49146469741517
6	5457289	130	12.515145418412
6	5561436	131	6.8413102619396
6	5668094	132	-0.84834335255985
6	5774942	133	12.136523899373
6	5884487	134	6.4399418741618
6	5993637	135	2.5092872102123
6	6105217	136	8.4339412201588
6	6216616	137	8.612101670373
6	6330196	138	-0.25501592936977
6	6443382	139	9.7474395735493
6	6559107	140	5.8839971799297
6	6674493	141	5.5096465720287
6	6792885	142	11.644514812247
6	6911437	143	6.7911291956601
6	7032847	144	-1.0856030939433
6	7154421	145	14.125602107956
6	7279018	146	0.973
6	7403496	147	9.5176644941607
6	7530778	148	7.5629760847788
6	7657841	149	9.9316534371556
6	7787678	150	6.1502019057911
5	184	3	-0.055038892605808
5	485	4	-0.31427640962647
5	786	5	-0.01709984469926
5	1417	6	0.013367353240028
5	2048	7	0.25169702770654
5	3129	8	-0.30734860833036
5	4210	9	0.63541435054503
5	5861	10	-0.18181675026426
5	7512	11	-0.49587713961955
5	9853	12	1.1317227926338
5	12194	13	-1.0622421826702
5	15265	14	0.43691833096091
5	18416	15	0.4714052437339
5	22337	16	-0.41280892153736
5	26258	17	0.42297781183152
5	30989	18	-1.0106623775209
5	35720	19	1.0555846546777
5	41381	20	-0.81425723416032
5	46962	21	-0.29710961622186
5	53513	22	0.71750655479264
5	60064	23	0.12145855405834
5	67625	24	-0.4455723578576
5	75186	25	-0.082004937867168
5	83797	26	-0.1765153897577
5	92408	27	0.98316923395032
5	102109	28	-0.24433198123006
5	111810	29	0.024247652909253
5	122561	30	-0.77693307772279
5	133312	31	0.013064037484583
5	145153	32	0.57156019611284
5	156994	33	0.36047621921171
5	170045	34	-0.95134066214086
5	183096	35	0.53412178327562
5	197397	36	0.41159573564073
5	211699	37	0.16032312705647
5	227199	38	-0.26526325149462
5	242703	39	-0.054172314121388
5	259534	40	-0.23105813015718
5	276367	41	-0.50313068117248
5	294571	42	0.12029366393108
5	312666	43	-0.24301625788212
5	332172	44	0.72327709960518
5	351456	45	0.23861267371103
5	372114	46	-0.032346485531889
5	392690	47	-0.46411262825131
5	414687	48	0.48263113887515
5	436762	49	0.0056178821250796
5	460258	50	-0.92045627359767
5	483758	51	0.082077201514039
5	508829	52	0.96771773853106
5	533820	53	-0.50555204506963
5	560498	54	0.20641731272917
5	587225	55	-0.31814042653423
5	615516	56	0.52820604585577
5	643807	57	0.1766297078575
5	673787	58	-0.064681964286137
5	703770	59	-0.37503540806938
5	735354	60	0.0061764381825924
5	767070	61	-0.4082587666926
5	800561	62	0.61031319113681
5	834053	63	-0.86733521515271
5	869274	64	0.18098858214216
5	904576	65	-0.1607996810344
5	941569	66	0.97477296367288
5	978562	67	-0.4282740468625
5	1017317	68	-0.65781348035671
5	1056074	69	1.1608386147418
5	1096670	70	-1.1076082821819
5	1137213	71	0.25536935863784
5	1179708	72	-0.029989263275638
5	1223269	73	0.33205524814548
5	1268807	74	-0.24005053419387
5	1314357	75	0.18451305746567
5	1361818	76	-0.46636652725283
5	1409026	77	0.66545655281516
5	1458310	78	-0.06296013656538
5	1507576	79	-0.15448570396984
5	1558693	80	-0.071955697785597
5	1609755	81	0.17443552438635
5	1662769	82	-0.49696922564181
5	1715669	83	0.21291787241353
5	1770565	84	0.6000670872163
5	1825326	85	-0.8283955976367
5	1882428	86	0.13678049523151
5	1939408	87	0.7712252359488
5	1999007	88	-0.43900934571866
5	2058517	89	-0.26056634378619
5	2120431	90	0.56958553759614
5	2182333	91	-0.0104048292269
5	2246873	92	-0.71377217274858
5	2311437	93	0.3259627908119
5	2378467	94	0.37130226439331
5	2445417	95	-0.90247942280257
5	2514778	96	0.78050926007563
5	2584131	97	-0.41731060860911
5	2655934	98	-0.07317160256207
5	2727544	99	0.63912240148056
5	2801188	100	-0.8798418729566
5	2874307	101	0.19359467201866
5	2949716	102	0.44776737486245
5	3024965	103	0.48847794620087
5	3102716	104	-0.69545321777696
5	3180521	105	0.71342614217428
5	3260638	106	-0.45755213592201
5	3340387	107	-0.077000872988719
5	3422559	108	-0.001109627482947
5	3504543	109	-0.27041873458074
5	3588899	110	0.68907772540115
5	3672912	111	-0.45500447304221
5	3759269	112	0.26801984990016
5	3845093	113	0.11684627272189
5	3933548	114	-0.51404505880782
5	4021826	115	-0.44272186176386
5	4111540	116	0.5356085835956
5	4201074	117	0.19619877595687
5	4292341	118	-0.095822964212857
5	4382955	119	-0.50992262491491
5	4475862	120	0.78257138549816
5	4568568	121	0.038815597945359
5	4663655	122	-0.85342360689538
5	4758582	123	0.15408247272717
5	4855710	124	-0.013254662626423
5	4952588	125	0.38619427854428
5	5051609	126	0.3744043369079
5	5150342	127	-0.60117902525235
5	5251756	128	0.29534014698584
5	5353189	129	-0.69333375518909
5	5457289	130	0.77005980478134
5	5561436	131	0.067891941871494
5	5668094	132	-0.86183155275648
5	5774942	133	0.72779447888024
5	5884487	134	0.023550805926789
5	5993637	135	-0.44751149427611
5	6105217	136	0.27842761744978
5	6216616	137	0.28530220588436
5	6330196	138	-0.78855314670363
5	6443382	139	0.44464905309724
5	6559107	140	-0.033699780760799
5	6674493	141	-0.07700528105488
5	6792885	142	0.6458120510797
5	6911437	143	0.050225919112563
5	7032847	144	-0.8953820032184
5	7154421	145	0.94203472166555
5	7279018	146	-1.0938999074278
5	7403496	147	0.41857813077513
5	7530778	148	0.16721590189263
5	7657841	149	0.4350637664902
5	7787678	150	-0.025701267004479
2	93	2	33.410454825024
2	184	3	33.355415932418
2	485	4	33.041139522792
2	786	5	33.024039678092
2	1417	6	33.037407031332
2	2048	7	33.289104059039
2	3129	8	32.981755450709
2	4210	9	33.617169801254
2	5861	10	33.435353050989
2	7512	11	32.93947591137
2	9853	12	34.071198704004
2	12194	13	33.008956521333
2	15265	14	33.445874852294
2	18416	15	33.917280096028
2	22337	16	33.504471174491
2	26258	17	33.927448986322
2	30989	18	32.916786608801
2	35720	19	33.972371263479
2	41381	20	33.158114029319
2	46962	21	32.861004413097
2	53513	22	33.57851096789
2	60064	23	33.699969521948
2	67625	24	33.25439716409
2	75186	25	33.172392226223
2	83797	26	32.995876836465
2	92408	27	33.979046070416
2	102109	28	33.734714089186
2	111810	29	33.758961742095
2	122561	30	32.982028664372
2	133312	31	32.995092701857
2	145153	32	33.56665289797
2	156994	33	33.927129117181
2	170045	34	32.97578845504
2	183096	35	33.509910238316
2	197397	36	33.921505973957
2	211699	37	34.081829101013
2	227199	38	33.816565849519
2	242703	39	33.762393535397
2	259534	40	33.53133540524
2	276367	41	33.028204724068
2	294571	42	33.148498387999
2	312666	43	32.905482130117
2	332172	44	33.628759229722
2	351456	45	33.867371903433
2	372114	46	33.835025417901
2	392690	47	33.37091278965
2	414687	48	33.853543928525
2	436762	49	33.85916181065
2	460258	50	32.938705537052
2	483758	51	33.020782738566
2	508829	52	33.988500477097
2	533820	53	33.482948432028
2	560498	54	33.689365744757
2	587225	55	33.371225318223
2	615516	56	33.899431364078
2	643807	57	34.076061071936
2	673787	58	34.01137910765
2	703770	59	33.63634369958
2	735354	60	33.642520137763
2	767070	61	33.23426137107
2	800561	62	33.844574562207
2	834053	63	32.977239347054
2	869274	64	33.158227929197
2	904576	65	32.997428248162
2	941569	66	33.972201211835
2	978562	67	33.543927164973
2	1017317	68	32.886113684616
2	1056074	69	34.046952299358
2	1096670	70	32.939344017176
2	1137213	71	33.194713375814
2	1179708	72	33.164724112538
2	1223269	73	33.496779360683
2	1268807	74	33.25672882649
2	1314357	75	33.441241883955
2	1361818	76	32.974875356702
2	1409026	77	33.640331909518
2	1458310	78	33.577371772952
2	1507576	79	33.422886068982
2	1558693	80	33.350930371197
2	1609755	81	33.525365895583
2	1662769	82	33.028396669941
2	1715669	83	33.241314542355
2	1770565	84	33.841381629571
2	1825326	85	33.012986031934
2	1882428	86	33.149766527166
2	1939408	87	33.920991763115
2	1999007	88	33.481982417396
2	2058517	89	33.22141607361
2	2120431	90	33.791001611206
2	2182333	91	33.780596781979
2	2246873	92	33.06682460923
2	2311437	93	33.392787400042
2	2378467	94	33.764089664436
2	2445417	95	32.861610241633
2	2514778	96	33.642119501709
2	2584131	97	33.2248088931
2	2655934	98	33.151637290538
2	2727544	99	33.790759692018
2	2801188	100	32.910917819062
2	2874307	101	33.10451249108
2	2949716	102	33.552279865943
2	3024965	103	34.040757812144
2	3102716	104	33.345304594367
2	3180521	105	34.058730736541
2	3260638	106	33.601178600619
2	3340387	107	33.52417772763
2	3422559	108	33.523068100147
2	3504543	109	33.252649365566
2	3588899	110	33.941727090968
2	3672912	111	33.486722617925
2	3759269	112	33.754742467826
2	3845093	113	33.871588740547
2	3933548	114	33.35754368174
2	4021826	115	32.914821819976
2	4111540	116	33.450430403571
2	4201074	117	33.646629179528
2	4292341	118	33.550806215315
2	4382955	119	33.0408835904
2	4475862	120	33.823454975899
2	4568568	121	33.862270573844
2	4663655	122	33.008846966949
2	4758582	123	33.162929439676
2	4855710	124	33.149674777049
2	4952588	125	33.535869055594
2	5051609	126	33.910273392502
2	5150342	127	33.309094367249
2	5251756	128	33.604434514235
2	5353189	129	32.911100759046
2	5457289	130	33.681160563827
2	5561436	131	33.749052505699
2	5668094	132	32.887220952942
2	5774942	133	33.615015431822
2	5884487	134	33.638566237749
2	5993637	135	33.191054743473
2	6105217	136	33.469482360923
2	6216616	137	33.754784566807
2	6330196	138	32.966231420104
2	6443382	139	33.410880473201
2	6559107	140	33.37718069244
2	6674493	141	33.300175411385
2	6792885	142	33.945987462465
2	6911437	143	33.996213381577
2	7032847	144	33.100831378359
2	7154421	145	34.042866100025
2	7279018	146	32.948966192597
2	7403496	147	33.367544323372
2	7530778	148	33.534760225265
2	7657841	149	33.969823991755
2	7787678	150	33.94412272475
1	2	1	29.95
1	93	2	29.95
1	184	3	29.95
1	485	4	29.95
1	786	5	29.95
1	1417	6	29.95
1	2048	7	29.95
1	3129	8	29.95
1	4210	9	29.95
1	5861	10	29.95
1	7512	11	29.95
1	9853	12	29.95
1	12194	13	29.95
1	15265	14	29.95
1	18416	15	29.95
1	22337	16	29.95
1	26258	17	29.95
1	30989	18	29.95
1	35720	19	29.95
1	41381	20	29.95
1	46962	21	29.95
1	53513	22	29.95
1	60064	23	29.95
1	67625	24	29.95
1	75186	25	29.95
1	83797	26	29.95
1	92408	27	29.95
1	102109	28	29.95
1	111810	29	29.95
1	122561	30	29.95
1	133312	31	29.95
1	145153	32	29.95
1	156994	33	29.95
1	170045	34	29.95
1	183096	35	29.95
1	197397	36	29.95
1	211699	37	29.95
1	227199	38	29.95
1	242703	39	29.95
1	259534	40	29.95
1	276367	41	29.95
1	294571	42	29.95
1	312666	43	29.95
1	332172	44	29.95
1	351456	45	29.95
1	372114	46	29.95
1	392690	47	29.95
1	414687	48	29.95
1	436762	49	29.95
1	460258	50	29.95
1	483758	51	29.95
1	508829	52	29.95
1	533820	53	29.95
1	560498	54	29.95
1	587225	55	29.95
1	615516	56	29.95
1	643807	57	29.95
1	673787	58	29.95
1	703770	59	29.95
1	735354	60	29.95
1	767070	61	29.95
1	800561	62	29.95
1	834053	63	29.95
1	869274	64	29.95
1	904576	65	29.95
1	941569	66	29.95
1	978562	67	29.95
1	1017317	68	29.95
1	1056074	69	29.95
1	1096670	70	29.95
1	1137213	71	29.95
1	1179708	72	29.95
1	1223269	73	29.95
1	1268807	74	29.95
1	1314357	75	29.95
1	1361818	76	29.95
1	1409026	77	29.95
1	1458310	78	29.95
1	1507576	79	29.95
1	1558693	80	29.95
1	1609755	81	29.95
1	1662769	82	29.95
1	1715669	83	29.95
1	1770565	84	29.95
1	1825326	85	29.95
1	1882428	86	29.95
1	1939408	87	29.95
1	1999007	88	29.95
1	2058517	89	29.95
1	2120431	90	29.95
1	2182333	91	29.95
1	2246873	92	29.95
1	2311437	93	29.95
1	2378467	94	29.95
1	2445417	95	29.95
1	2514778	96	29.95
1	2584131	97	29.95
1	2655934	98	29.95
1	2727544	99	29.95
1	2801188	100	29.95
1	2874307	101	29.95
1	2949716	102	29.95
1	3024965	103	29.95
1	3102716	104	29.95
1	3180521	105	29.95
1	3260638	106	29.95
1	3340387	107	29.95
1	3422559	108	29.95
1	3504543	109	29.95
1	3588899	110	29.95
1	3672912	111	29.95
1	3759269	112	29.95
1	3845093	113	29.95
1	3933548	114	29.95
1	4021826	115	29.95
1	4111540	116	29.95
1	4201074	117	29.95
1	4292341	118	29.95
1	4382955	119	29.95
1	4475862	120	29.95
1	4568568	121	29.95
1	4663655	122	29.95
1	4758582	123	29.95
1	4855710	124	29.95
1	4952588	125	29.95
1	5051609	126	29.95
1	5150342	127	29.95
1	5251756	128	29.95
1	5353189	129	29.95
1	5457289	130	29.95
1	5561436	131	29.95
1	5668094	132	29.95
1	5774942	133	29.95
1	5884487	134	29.95
1	5993637	135	29.95
1	6105217	136	29.95
1	6216616	137	29.95
1	6330196	138	29.95
1	6443382	139	29.95
1	6559107	140	29.95
1	6674493	141	29.95
1	6792885	142	29.95
1	6911437	143	29.95
1	7032847	144	29.95
1	7154421	145	29.95
1	7279018	146	29.95
1	7403496	147	29.95
1	7530778	148	29.95
1	7657841	149	29.95
1	7787678	150	29.95
0	2	1	30.1
0	93	2	30.1
0	184	3	63.510454825024
0	485	4	96.865870757442
0	786	5	129.90701028023
0	1417	6	162.93104995833
0	2048	7	195.96845698966
0	3129	8	229.2575610487
0	4210	9	262.23931649941
0	5861	10	295.85648630066
0	7512	11	329.29183935165
0	9853	12	362.23131526302
0	12194	13	396.30251396702
0	15265	14	429.31147048836
0	18416	15	462.75734534065
0	22337	16	496.67462543668
0	26258	17	530.17909661117
0	30989	18	564.10654559749
0	35720	19	597.02333220629
0	41381	20	630.99570346977
0	46962	21	664.15381749909
0	53513	22	697.01482191219
0	60064	23	730.59333288008
0	67625	24	764.29330240202
0	75186	25	797.54769956611
0	83797	26	830.72009179234
0	92408	27	863.7159686288
0	102109	28	897.69501469922
0	111810	29	931.4297287884
0	122561	30	965.1886905305
0	133312	31	998.17071919487
0	145153	32	1031.1658118967
0	156994	33	1064.7324647947
0	170045	34	1098.6595939119
0	183096	35	1131.6353823669
0	197397	36	1165.1452926052
0	211699	37	1199.0667985792
0	227199	38	1233.1486276802
0	242703	39	1266.9651935297
0	259534	40	1300.7275870651
0	276367	41	1334.2589224704
0	294571	42	1367.2871271944
0	312666	43	1400.4356255824
0	332172	44	1433.3411077125
0	351456	45	1466.9698669423
0	372114	46	1500.8372388457
0	392690	47	1534.6722642636
0	414687	48	1568.0431770532
0	436762	49	1601.8967209818
0	460258	50	1635.7558827924
0	483758	51	1668.6945883295
0	508829	52	1701.715371068
0	533820	53	1735.7038715451
0	560498	54	1769.1868199772
0	587225	55	1802.8761857219
0	615516	56	1836.2474110401
0	643807	57	1870.1468424042
0	673787	58	1904.2229034762
0	703770	59	1938.2342825838
0	735354	60	1971.8706262834
0	767070	61	2005.5131464212
0	800561	62	2038.7474077922
0	834053	63	2072.5919823544
0	869274	64	2105.5692217015
0	904576	65	2138.7274496307
0	941569	66	2171.7248778788
0	978562	67	2205.6970790907
0	1017317	68	2239.2410062557
0	1056074	69	2272.1271199403
0	1096670	70	2306.1740722396
0	1137213	71	2339.1134162568
0	1179708	72	2372.3081296326
0	1223269	73	2405.4728537452
0	1268807	74	2438.9696331058
0	1314357	75	2472.2263619323
0	1361818	76	2505.6676038163
0	1409026	77	2538.642479173
0	1458310	78	2572.2828110825
0	1507576	79	2605.8601828555
0	1558693	80	2639.2830689244
0	1609755	81	2672.6339992956
0	1662769	82	2706.1593651912
0	1715669	83	2739.1877618612
0	1770565	84	2772.4290764035
0	1825326	85	2806.2704580331
0	1882428	86	2839.283444065
0	1939408	87	2872.4332105922
0	1999007	88	2906.3542023553
0	2058517	89	2939.8361847727
0	2120431	90	2973.0576008463
0	2182333	91	3006.8486024575
0	2246873	92	3040.6291992395
0	2311437	93	3073.6960238487
0	2378467	94	3107.0888112488
0	2445417	95	3140.8529009132
0	2514778	96	3173.7145111548
0	2584131	97	3207.3566306565
0	2655934	98	3240.5814395496
0	2727544	99	3273.7330768402
0	2801188	100	3307.5238365322
0	2874307	101	3340.4347543513
0	2949716	102	3373.5392668423
0	3024965	103	3407.0915467083
0	3102716	104	3441.1323045204
0	3180521	105	3474.4776091148
0	3260638	106	3508.5363398513
0	3340387	107	3542.1375184519
0	3422559	108	3575.6616961796
0	3504543	109	3609.1847642797
0	3588899	110	3642.4374136453
0	3672912	111	3676.3791407363
0	3759269	112	3709.8658633542
0	3845093	113	3743.620605822
0	3933548	114	3777.4921945626
0	4021826	115	3810.8497382443
0	4111540	116	3843.7645600643
0	4201074	117	3877.2149904678
0	4292341	118	3910.8616196474
0	4382955	119	3944.4124258627
0	4475862	120	3977.4533094531
0	4568568	121	4011.276764429
0	4663655	122	4045.1390350028
0	4758582	123	4078.1478819698
0	4855710	124	4111.3108114095
0	4952588	125	4144.4604861865
0	5051609	126	4177.9963552421
0	5150342	127	4211.9066286346
0	5251756	128	4245.2157230018
0	5353189	129	4278.8201575161
0	5457289	130	4311.7312582751
0	5561436	131	4345.412418839
0	5668094	132	4379.1614713447
0	5774942	133	4412.0486922976
0	5884487	134	4445.6637077294
0	5993637	135	4479.3022739672
0	6105217	136	4512.4933287106
0	6216616	137	4545.9628110716
0	6330196	138	4579.7175956384
0	6443382	139	4612.6838270585
0	6559107	140	4646.0947075317
0	6674493	141	4679.4718882241
0	6792885	142	4712.7720636355
0	6911437	143	4746.718051098
0	7032847	144	4780.7142644796
0	7154421	145	4813.8150958579
0	7279018	146	4847.8579619579
0	7403496	147	4880.8069281505
0	7530778	148	4914.1744724739
0	7657841	149	4947.7092326992
0	7787678	150	4981.6790566909
vector 378 HighwayScenario1.node[76].veinsmobility posx ETV
vector 379 HighwayScenario1.node[76].veinsmobility posy ETV
vector 380 HighwayScenario1.node[75].veinsmobility acceleration ETV
vector 381 HighwayScenario1.node[75].veinsmobility co2emission ETV
vector 382 HighwayScenario1.node[76].veinsmobility speed ETV
11	786	5	7.2495004523269
11	1417	6	6.7295802296022
11	2048	7	5.3246482938961
11	3129	8	8.0723112643782
11	4210	9	0.7602941699132
11	5861	10	7.7505909047172
11	7512	11	10.247828825346
11	9853	12	9.4792204063197
11	12194	13	-0.83858796562536
11	15265	14	5.8265012007196
11	18416	15	6.8539517297321
11	22337	16	10.905247495119
11	26258	17	8.9048419736908
11	30989	18	0.973
11	35720	19	14.986031489361
11	41381	20	3.6644468912805
11	46962	21	-0.40047450586038
11	53513	22	11.148095544233
11	60064	23	9.679206558787
11	67625	24	6.7809416083407
11	75186	25	7.1658052102747
11	83797	26	2.2250122145419
11	92408	27	0.96036536737326
11	102109	28	12.93956751943
11	111810	29	1.6922422429726
11	122561	30	3.5044900635588
11	133312	31	13.422736637157
11	145153	32	2.4171953800085
11	156994	33	11.618363721472
11	170045	34	5.938515968695
11	183096	35	0.973
11	197397	36	12.185831407179
11	211699	37	2.4854436221407
11	227199	38	4.9141937175838
11	242703	39	8.7292485317512
11	259534	40	7.4158907561458
11	276367	41	10.69306463086
11	294571	42	-2.0804058908915
11	312666	43	10.477190628975
11	332172	44	4.1995284561741
11	351456	45	10.793264020341
11	372114	46	5.3761472219248
11	392690	47	-0.81751913886264
11	414687	48	9.7193600709753
11	436762	49	8.4020944937286
11	460258	50	9.0755421412605
11	483758	51	3.7293728759945
11	508829	52	9.6657689032865
11	533820	53	6.1541068191527
11	560498	54	3.0254199715214
11	587225	55	6.9034748953451
11	615516	56	0.22763285625312
11	643807	57	9.9439784627674
11	673787	58	6.0200396468419
11	703770	59	11.267911073004
11	735354	60	0.973
11	767070	61	11.67559635865
11	800561	62	3.6169313170072
11	834053	63	12.1047702425
11	869274	64	0.56981827873919
11	904576	65	9.8533193060556
11	941569	66	3.0778372714286
11	978562	67	1.8612132505753
11	1017317	68	16.082526195399
11	1056074	69	2.2502705579527
11	1096670	70	4.3848754992495
11	1137213	71	2.7039543293299
11	1179708	72	5.9425768442218
11	1223269	73	11.064071938352
11	1268807	74	3.379942900767
11	1314357	75	5.3402163571807
11	1361818	76	12.880408024287
11	1409026	77	2.1495819166133
11	1458310	78	2.2172925345689
11	1507576	79	13.562780633332
11	1558693	80	-1.14178001706
11	1609755	81	12.82449740518
11	1662769	82	2.6129983664916
11	1715669	83	3.1885299398926
11	1770565	84	10.958616789279
11	1825326	85	1.1665679901581
11	1882428	86	9.7348924653342
11	1939408	87	3.1335319448719
11	1999007	88	10.264268482649
11	2058517	89	5.835194937568
11	2120431	90	9.0171983587863
11	2182333	91	7.962698160645
11	2246873	92	2.3140802948769
11	2311437	93	4.2328034077441
11	2378467	94	11.170670000613
11	2445417	95	-0.54011308077458
11	2514778	96	8.0089127438299
11	2584131	97	3.0254782272135
11	2655934	98	5.8730836191812
11	2727544	99	13.198086024626
11	2801188	100	3.1830084267638
11	2874307	101	10.41181588354
11	2949716	102	6.6153775084956
11	3024965	103	5.0191939332047
11	3102716	104	8.1594211015095
11	3180521	105	2.6179318234065
11	3260638	106	1.3466559563736
11	3340387	107	8.5156750807785
11	3422559	108	3.6717909309208
11	3504543	109	11.410214179829
11	3588899	110	6.8684531617532
11	3672912	111	0.59339106134572
11	3759269	112	15.022622435071
11	3845093	113	3.3601197116718
11	3933548	114	0.34099613449761
11	4021826	115	9.2898511204014
11	4111540	116	7.4764164153293
11	4201074	117	2.4304119511574
11	4292341	118	11.622064163749
11	4382955	119	0.20065884286088
11	4475862	120	5.8160998988258
11	4568568	121	9.8771313261637
11	4663655	122	1.1991649042197
11	4758582	123	13.249809321377
11	4855710	124	0.16250905578404
11	4952588	125	10.970531553404
11	5051609	126	3.0008946838197
11	5150342	127	5.0303072049673
11	5251756	128	13.068345442774
11	5353189	129	2.9759477999598
11	5457289	130	3.9023339819182
11	5561436	131	11.611870428202
11	5668094	132	-0.50675940795436
11	5774942	133	14.472558096295
11	5884487	134	-1.1505754536504
11	5993637	135	11.421261923646
11	6105217	136	2.5455243293141
11	6216616	137	4.9132021160414
11	6330196	138	9.1585676061696
11	6443382	139	1.0452975217372
11	6559107	140	5.5128789455556
11	6674493	141	6.201702364691
11	6792885	142	10.484436145835
11	6911437	143	1.3717948150476
11	7032847	144	13.354132738716
11	7154421	145	1.5838834422562
11	7279018	146	12.481404200936
11	7403496	147	-0.61249402299928
11	7530778	148	13.545980553535
11	7657841	149	-0.27078034914371
11	7787678	150	13.416061617145
11	7917690	151	-2.2894944967838
11	8049250	152	9.0669949342327
10	786	5	0.14053249324206
10	1417	6	0.072350241243839
10	2048	7	-0.098350648768246
10	3129	8	0.23247060802532
10	4210	9	-0.65759444260038
10	5861	10	0.21492216328625
10	7512	11	0.49867530033225
10	9853	12	0.3820693702437
10	12194	13	-0.86378432490164
10	15265	14	-0.026252258685417
10	18416	15	0.098157390311826
10	22337	16	0.57009630021639
10	26258	17	0.3072072667419
10	30989	18	-1.1047608416993
10	35720	19	1.0529662561021
10	41381	20	-0.31900360394502
10	46962	21	-0.80440114950761
10	53513	22	0.61579812056152
10	60064	23	0.41015977913048
10	67625	24	0.052605685486924
10	75186	25	0.095138410979416
10	83797	26	-0.49284414504655
10	92408	27	-0.63361827953486
10	102109	28	0.82053430960514
10	111810	29	-0.54875889560208
10	122561	30	-0.31126466055866
10	133312	31	0.87869091774337
10	145153	32	-0.46126535744406
10	156994	33	0.64493150130147
10	170045	34	-0.048000678652897
10	183096	35	-1.0719788749702
10	197397	36	0.73957963148132
10	211699	37	-0.44716050033458
10	227199	38	-0.13707658014027
10	242703	39	0.32575876190094
10	259534	40	0.15438393835211
10	276367	41	0.52901146380464
10	294571	42	-1.0179197165417
10	312666	43	0.5318195396103
10	332172	44	-0.23766832833644
10	351456	45	0.55174834182253
10	372114	46	-0.10910221142694
10	392690	47	-0.85668450570665
10	414687	48	0.44952305412153
10	436762	49	0.27093043812783
10	460258	50	0.33580588555196
10	483758	51	-0.3081826743437
10	508829	52	0.40273212449392
10	533820	53	-0.025135463802144
10	560498	54	-0.39464904664783
10	587225	55	0.081194104568567
10	615516	56	-0.72640414233319
10	643807	57	0.47124316188274
10	673787	58	-0.015927118365653
10	703770	59	0.59910833806498
10	735354	60	-1.0745783874881
10	767070	61	0.67466186621459
10	800561	62	-0.31095034006285
10	834053	63	0.70195406122366
10	869274	64	-0.69150271418039
10	904576	65	0.4411918783444
10	941569	66	-0.38057141471654
10	978562	67	-0.51750175887719
10	1017317	68	1.1852065593121
10	1056074	69	-0.48897396627581
10	1096670	70	-0.2163672473398
10	1137213	71	-0.41298230615212
10	1179708	72	-0.0039330459549092
10	1223269	73	0.60465362621471
10	1268807	74	-0.33660463028355
10	1314357	75	-0.08747118874453
10	1361818	76	0.80368816532427
10	1409026	77	-0.49713783373591
10	1458310	78	-0.47467446507653
10	1507576	79	0.892951823771
10	1558693	80	-0.89855578669813
10	1609755	81	0.80841491493629
10	1662769	82	-0.43611540168058
10	1715669	83	-0.35255641385447
10	1770565	84	0.59078806545585
10	1825326	85	-0.60723571892595
10	1882428	86	0.44829211226897
10	1939408	87	-0.36180547438562
10	1999007	88	0.50563296186738
10	2058517	89	-0.041739445296116
10	2120431	90	0.33493474096758
10	2182333	91	0.19540064356988
10	2246873	92	-0.4803823272232
10	2311437	93	-0.23382976040011
10	2378467	94	0.59487997699762
10	2445417	95	-0.82524296449265
10	2514778	96	0.23720779659925
10	2584131	97	-0.37261588935507
10	2655934	98	-0.01263135636691
10	2727544	99	0.85199558379827
10	2801188	100	-0.36838231782895
10	2874307	101	0.50113063305616
10	2949716	102	0.034128127445001
10	3024965	103	-0.15514126571361
10	3102716	104	0.21990354231093
10	3180521	105	-0.44358542043483
10	3260638	106	-0.58561506855767
10	3340387	107	0.3019924912951
10	3422559	108	-0.29282214818522
10	3504543	109	0.64129197387956
10	3588899	110	0.076259530032985
10	3672912	111	-0.68162382260198
10	3759269	112	1.0535845093546
10	3845093	113	-0.35696921055205
10	3933548	114	-0.71303157310467
10	4021826	115	0.39203269756399
10	4111540	116	0.15849994815653
10	4201074	117	-0.45282525883522
10	4292341	118	0.65881126996828
10	4382955	119	-0.73125802126015
10	4475862	120	-0.023498765658587
10	4568568	121	0.46101219893899
10	4663655	122	-0.60140093177324
10	4758582	123	0.86158581252676
10	4855710	124	-0.73524691048078
10	4952588	125	0.5896930405288
10	5051609	126	-0.38428738858784
10	5150342	127	-0.125131693203
10	5251756	128	0.8272586579551
10	5353189	129	-0.39731971803121
10	5457289	130	-0.272568782093
10	5561436	131	0.64994061482139
10	5668094	132	-0.82084966212278
10	5774942	133	0.9884852624964
10	5884487	134	-0.90323373733554
10	5993637	135	0.63305631803814
10	6105217	136	-0.44544941280037
10	6216616	137	-0.14442203391809
10	6330196	138	0.36693031550385
10	6443382	139	-0.62250643182779
10	6559107	140	-0.05618772120215
10	6674493	141	0.029588130419143
10	6792885	142	0.53790603822563
10	6911437	143	-0.57950642454671
10	7032847	144	0.87374484515749
10	7154421	145	-0.56114286620868
10	7279018	146	0.75328989129048
10	7403496	147	-0.83481555688195
10	7530778	148	0.88047729601385
10	7657841	149	-0.79364027944393
10	7787678	150	0.85992017848184
10	7917690	151	-1.0442616281216
10	8049250	152	0.36612997559132
7	485	4	33.144329647804
7	786	5	33.284862141046
7	1417	6	33.35721238229
7	2048	7	33.258861733522
7	3129	8	33.491332341547
7	4210	9	32.833737898947
7	5861	10	33.048660062233
7	7512	11	33.547335362565
7	9853	12	33.929404732809
7	12194	13	33.065620407907
7	15265	14	33.039368149222
7	18416	15	33.137525539533
7	22337	16	33.70762183975
7	26258	17	34.014829106492
7	30989	18	32.910068264792
7	35720	19	33.963034520895
7	41381	20	33.64403091695
7	46962	21	32.839629767442
7	53513	22	33.455427888003
7	60064	23	33.865587667134
7	67625	24	33.918193352621
7	75186	25	34.0133317636
7	83797	26	33.520487618554
7	92408	27	32.886869339019
7	102109	28	33.707403648624
7	111810	29	33.158644753022
7	122561	30	32.847380092463
7	133312	31	33.726071010207
7	145153	32	33.264805652763
7	156994	33	33.909737154064
7	170045	34	33.861736475411
7	183096	35	32.789757600441
7	197397	36	33.529337231922
7	211699	37	33.082176731588
7	227199	38	32.945100151447
7	242703	39	33.270858913348
7	259534	40	33.4252428517
7	276367	41	33.954254315505
7	294571	42	32.936334598963
7	312666	43	33.468154138574
7	332172	44	33.230485810237
7	351456	45	33.78223415206
7	372114	46	33.673131940633
7	392690	47	32.816447434926
7	414687	48	33.265970489048
7	436762	49	33.536900927176
7	460258	50	33.872706812728
7	483758	51	33.564524138384
7	508829	52	33.967256262878
7	533820	53	33.942120799076
7	560498	54	33.547471752428
7	587225	55	33.628665856996
7	615516	56	32.902261714663
7	643807	57	33.373504876546
7	673787	58	33.35757775818
7	703770	59	33.956686096245
7	735354	60	32.882107708757
7	767070	61	33.556769574972
7	800561	62	33.245819234909
7	834053	63	33.947773296132
7	869274	64	33.256270581952
7	904576	65	33.697462460296
7	941569	66	33.31689104558
7	978562	67	32.799389286703
7	1017317	68	33.984595846015
7	1056074	69	33.495621879739
7	1096670	70	33.279254632399
7	1137213	71	32.866272326247
7	1179708	72	32.862339280292
7	1223269	73	33.466992906507
7	1268807	74	33.130388276223
7	1314357	75	33.042917087479
7	1361818	76	33.846605252803
7	1409026	77	33.349467419067
7	1458310	78	32.874792953991
7	1507576	79	33.767744777762
7	1558693	80	32.869188991064
7	1609755	81	33.677603906
7	1662769	82	33.241488504319
7	1715669	83	32.888932090465
7	1770565	84	33.479720155921
7	1825326	85	32.872484436995
7	1882428	86	33.320776549264
7	1939408	87	32.958971074878
7	1999007	88	33.464604036745
7	2058517	89	33.422864591449
7	2120431	90	33.757799332417
7	2182333	91	33.953199975987
7	2246873	92	33.472817648764
7	2311437	93	33.238987888363
7	2378467	94	33.833867865361
7	2445417	95	33.008624900868
7	2514778	96	33.245832697468
7	2584131	97	32.873216808113
7	2655934	98	32.860585451746
7	2727544	99	33.712581035544
7	2801188	100	33.344198717715
7	2874307	101	33.845329350771
7	2949716	102	33.879457478216
7	3024965	103	33.724316212503
7	3102716	104	33.944219754814
7	3180521	105	33.500634334379
7	3260638	106	32.915019265821
7	3340387	107	33.217011757116
7	3422559	108	32.924189608931
7	3504543	109	33.56548158281
7	3588899	110	33.641741112843
7	3672912	111	32.960117290241
7	3759269	112	34.013701799596
7	3845093	113	33.656732589044
7	3933548	114	32.943701015939
7	4021826	115	33.335733713503
7	4111540	116	33.49423366166
7	4201074	117	33.041408402825
7	4292341	118	33.700219672793
7	4382955	119	32.968961651533
7	4475862	120	32.945462885874
7	4568568	121	33.406475084813
7	4663655	122	32.80507415304
7	4758582	123	33.666659965567
7	4855710	124	32.931413055086
7	4952588	125	33.521106095615
7	5051609	126	33.136818707027
7	5150342	127	33.011687013824
7	5251756	128	33.838945671779
7	5353189	129	33.441625953748
7	5457289	130	33.169057171655
7	5561436	131	33.818997786476
7	5668094	132	32.998148124353
7	5774942	133	33.98663338685
7	5884487	134	33.083399649514
7	5993637	135	33.716455967552
7	6105217	136	33.271006554752
7	6216616	137	33.126584520834
7	6330196	138	33.493514836338
7	6443382	139	32.87100840451
7	6559107	140	32.814820683308
7	6674493	141	32.844408813727
7	6792885	142	33.382314851953
7	6911437	143	32.802808427406
7	7032847	144	33.676553272563
7	7154421	145	33.115410406355
7	7279018	146	33.868700297645
7	7403496	147	33.033884740763
7	7530778	148	33.914362036777
7	7657841	149	33.120721757333
7	7787678	150	33.980641935815
7	7917690	151	32.936380307693
7	8049250	152	33.302510283285
4	184	3	26.65
4	485	4	26.65
4	786	5	26.65
4	1417	6	26.65
4	2048	7	26.65
4	3129	8	26.65
4	4210	9	26.65
4	5861	10	26.65
4	7512	11	26.65
4	9853	12	26.65
4	12194	13	26.65
4	15265	14	26.65
4	18416	15	26.65
4	22337	16	29.95
4	26258	17	29.95
4	30989	18	29.95
4	35720	19	29.95
4	41381	20	29.95
4	46962	21	29.95
4	53513	22	29.95
4	60064	23	29.95
4	67625	24	29.95
4	75186	25	29.95
4	83797	26	29.95
4	92408	27	29.95
4	102109	28	29.95
4	111810	29	29.95
4	122561	30	29.95
4	133312	31	29.95
4	145153	32	29.95
4	156994	33	29.95
4	170045	34	29.95
4	183096	35	29.95
4	197397	36	29.95
4	211699	37	29.95
4	227199	38	29.95
4	242703	39	29.95
4	259534	40	29.95
4	276367	41	29.95
4	294571	42	29.95
4	312666	43	29.95
4	332172	44	29.95
4	351456	45	29.95
4	372114	46	29.95
4	392690	47	29.95
4	414687	48	29.95
4	436762	49	29.95
4	460258	50	29.95
4	483758	51	29.95
4	508829	52	29.95
4	533820	53	29.95
4	560498	54	29.95
4	587225	55	29.95
4	615516	56	29.95
4	643807	57	29.95
4	673787	58	29.95
4	703770	59	29.95
4	735354	60	29.95
4	767070	61	29.95
4	800561	62	29.95
4	834053	63	29.95
4	869274	64	29.95
4	904576	65	29.95
4	941569	66	29.95
4	978562	67	29.95
4	1017317	68	29.95
4	1056074	69	29.95
4	1096670	70	29.95
4	1137213	71	29.95
4	1179708	72	29.95
4	1223269	73	29.95
4	1268807	74	29.95
4	1314357	75	29.95
4	1361818	76	29.95
4	1409026	77	29.95
4	1458310	78	29.95
4	1507576	79	29.95
4	1558693	80	29.95
4	1609755	81	29.95
4	1662769	82	29.95
4	1715669	83	29.95
4	1770565	84	29.95
4	1825326	85	29.95
4	1882428	86	29.95
4	1939408	87	29.95
4	1999007	88	29.95
4	2058517	89	29.95
4	2120431	90	29.95
4	2182333	91	29.95
4	2246873	92	29.95
4	2311437	93	29.95
4	2378467	94	29.95
4	2445417	95	29.95
4	2514778	96	29.95
4	2584131	97	29.95
4	2655934	98	29.95
4	2727544	99	29.95
4	2801188	100	29.95
4	2874307	101	29.95
4	2949716	102	29.95
4	3024965	103	29.95
4	3102716	104	29.95
4	3180521	105	29.95
4	3260638	106	29.95
4	3340387	107	29.95
4	3422559	108	29.95
4	3504543	109	29.95
4	3588899	110	29.95
4	3672912	111	29.95
4	3759269	112	29.95
4	3845093	113	29.95
4	3933548	114	29.95
4	4021826	115	29.95
4	4111540	116	29.95
4	4201074	117	29.95
4	4292341	118	29.95
4	4382955	119	29.95
4	4475862	120	29.95
4	4568568	121	29.95
4	4663655	122	29.95
4	4758582	123	29.95
4	4855710	124	29.95
4	4952588	125	29.95
4	5051609	126	29.95
4	5150342	127	29.95
4	5251756	128	29.95
4	5353189	129	29.95
4	5457289	130	29.95
4	5561436	131	29.95
4	5668094	132	29.95
4	5774942	133	29.95
4	5884487	134	29.95
4	5993637	135	29.95
4	6105217	136	29.95
4	6216616	137	29.95
4	6330196	138	29.95
4	6443382	139	29.95
4	6559107	140	29.95
4	6674493	141	29.95
4	6792885	142	29.95
4	6911437	143	29.95
4	7032847	144	29.95
4	7154421	145	29.95
4	7279018	146	29.95
4	7403496	147	29.95
4	7530778	148	29.95
4	7657841	149	29.95
4	7787678	150	29.95
4	7917690	151	29.95
4	8049250	152	29.95
3	184	3	30.1
3	485	4	30.1
3	786	5	63.244329647804
3	1417	6	96.52919178885
3	2048	7	129.88640417114
3	3129	8	163.14526590466
3	4210	9	196.63659824621
3	5861	10	229.47033614515
3	7512	11	262.51899620739
3	9853	12	296.06633156995
3	12194	13	329.99573630276
3	15265	14	363.06135671067
3	18416	15	396.10072485989
3	22337	16	429.23825039942
3	26258	17	462.94587223917
3	30989	18	496.96070134567
3	35720	19	529.87076961046
3	41381	20	563.83380413135
3	46962	21	597.4778350483
3	53513	22	630.31746481574
3	60064	23	663.77289270375
3	67625	24	697.63848037088
3	75186	25	731.5566737235
3	83797	26	765.5700054871
3	92408	27	799.09049310566
3	102109	28	831.97736244467
3	111810	29	865.6847660933
3	122561	30	898.84341084632
3	133312	31	931.69079093878
3	145153	32	965.41686194899
3	156994	33	998.68166760175
3	170045	34	1032.5914047558
3	183096	35	1066.4531412312
3	197397	36	1099.2428988317
3	211699	37	1132.7722360636
3	227199	38	1165.8544127952
3	242703	39	1198.7995129466
3	259534	40	1232.07037186
3	276367	41	1265.4956147117
3	294571	42	1299.4498690272
3	312666	43	1332.3862036261
3	332172	44	1365.8543577647
3	351456	45	1399.084843575
3	372114	46	1432.867077727
3	392690	47	1466.5402096676
3	414687	48	1499.3566571026
3	436762	49	1532.6226275916
3	460258	50	1566.1595285188
3	483758	51	1600.0322353315
3	508829	52	1633.5967594699
3	533820	53	1667.5640157328
3	560498	54	1701.5061365319
3	587225	55	1735.0536082843
3	615516	56	1768.6822741413
3	643807	57	1801.5845358559
3	673787	58	1834.9580407325
3	703770	59	1868.3156184907
3	735354	60	1902.2723045869
3	767070	61	1935.1544122957
3	800561	62	1968.7111818706
3	834053	63	2001.9570011056
3	869274	64	2035.9047744017
3	904576	65	2069.1610449836
3	941569	66	2102.8585074439
3	978562	67	2136.1753984895
3	1017317	68	2168.9747877762
3	1056074	69	2202.9593836222
3	1096670	70	2236.455005502
3	1137213	71	2269.7342601344
3	1179708	72	2302.6005324606
3	1223269	73	2335.4628717409
3	1268807	74	2368.9298646474
3	1314357	75	2402.0602529236
3	1361818	76	2435.1031700111
3	1409026	77	2468.9497752639
3	1458310	78	2502.299242683
3	1507576	79	2535.174035637
3	1558693	80	2568.9417804147
3	1609755	81	2601.8109694058
3	1662769	82	2635.4885733118
3	1715669	83	2668.7300618161
3	1770565	84	2701.6189939066
3	1825326	85	2735.0987140625
3	1882428	86	2767.9711984995
3	1939408	87	2801.2919750488
3	1999007	88	2834.2509461236
3	2058517	89	2867.7155501604
3	2120431	90	2901.1384147518
3	2182333	91	2934.8962140843
3	2246873	92	2968.8494140602
3	2311437	93	3002.322231709
3	2378467	94	3035.5612195974
3	2445417	95	3069.3950874627
3	2514778	96	3102.4037123636
3	2584131	97	3135.6495450611
3	2655934	98	3168.5227618692
3	2727544	99	3201.3833473209
3	2801188	100	3235.0959283565
3	2874307	101	3268.4401270742
3	2949716	102	3302.285456425
3	3024965	103	3336.1649139032
3	3102716	104	3369.8892301157
3	3180521	105	3403.8334498705
3	3260638	106	3437.3340842049
3	3340387	107	3470.2491034707
3	3422559	108	3503.4661152278
3	3504543	109	3536.3903048367
3	3588899	110	3569.9557864195
3	3672912	111	3603.5975275324
3	3759269	112	3636.5576448226
3	3845093	113	3670.5713466222
3	3933548	114	3704.2280792113
3	4021826	115	3737.1717802272
3	4111540	116	3770.5075139407
3	4201074	117	3804.0017476024
3	4292341	118	3837.0431560052
3	4382955	119	3870.743375678
3	4475862	120	3903.7123373295
3	4568568	121	3936.6578002154
3	4663655	122	3970.0642753002
3	4758582	123	4002.8693494532
3	4855710	124	4036.5360094188
3	4952588	125	4069.4674224739
3	5051609	126	4102.9885285695
3	5150342	127	4136.1253472765
3	5251756	128	4169.1370342904
3	5353189	129	4202.9759799621
3	5457289	130	4236.4176059159
3	5561436	131	4269.5866630875
3	5668094	132	4303.405660874
3	5774942	133	4336.4038089984
3	5884487	134	4370.3904423852
3	5993637	135	4403.4738420347
3	6105217	136	4437.1902980023
3	6216616	137	4470.461304557
3	6330196	138	4503.5878890779
3	6443382	139	4537.0814039142
3	6559107	140	4569.9524123187
3	6674493	141	4602.767233002
3	6792885	142	4635.6116418157
3	6911437	143	4668.9939566677
3	7032847	144	4701.7967650951
3	7154421	145	4735.4733183677
3	7279018	146	4768.588728774
3	7403496	147	4802.4574290717
3	7530778	148	4835.4913138124
3	7657841	149	4869.4056758492
3	7787678	150	4902.5263976065
3	7917690	151	4936.5070395424
3	8049250	152	4969.4434198501
vector 383 HighwayScenario1.node[77].veinsmobility posx ETV
vector 384 HighwayScenario1.node[77].veinsmobility posy ETV
vector 385 HighwayScenario1.node[76].veinsmobility acceleration ETV
vector 386 HighwayScenario1.node[76].veinsmobility co2emission ETV
vector 387 HighwayScenario1.node[77].veinsmobility speed ETV
vector 388 HighwayScenario1.node[78].veinsmobility posx ETV
vector 389 HighwayScenario1.node[78].veinsmobility posy ETV
vector 390 HighwayScenario1.node[77].veinsmobility acceleration ETV
vector 391 HighwayScenario1.node[77].veinsmobility co2emission ETV
16	2048	7	6.5282691030966
16	3129	8	9.6106879214466
16	4210	9	1.8823418123808
16	5861	10	6.0685614087951
16	7512	11	2.4223946637931
16	9853	12	10.839851054179
16	12194	13	0.97608529710855
16	15265	14	6.8456474185666
16	18416	15	8.4929362858638
16	22337	16	9.7723757408924
16	26258	17	4.7746015736163
16	30989	18	2.4530193239541
16	35720	19	3.05145870385
16	41381	20	9.6381608201497
16	46962	21	11.39124872842
16	53513	22	2.3663288953915
16	60064	23	2.9583399096858
16	67625	24	3.9772891936304
16	75186	25	15.772824062645
16	83797	26	0.973
16	92408	27	9.4602958180578
16	102109	28	10.196058102742
16	111810	29	0.51218177033323
16	122561	30	6.5510945726586
16	133312	31	7.0312189887201
16	145153	32	5.7859880233348
16	156994	33	9.275028542756
16	170045	34	5.4457599057667
16	183096	35	1.2619646065867
16	197397	36	14.50809540497
16	211699	37	2.8622525391654
16	227199	38	6.2984868840558
16	242703	39	2.6914784797016
16	259534	40	3.0203283324
16	276367	41	8.2178110074286
16	294571	42	10.426956342332
16	312666	43	2.3541457879687
16	332172	44	8.3397051815654
16	351456	45	9.4693308310983
16	372114	46	4.7464144555403
16	392690	47	1.0082041793903
16	414687	48	6.1038315818407
16	436762	49	8.695117297505
16	460258	50	8.0315401723927
16	483758	51	2.0029092098631
16	508829	52	6.6781187613947
16	533820	53	8.0027024700003
16	560498	54	9.5061350709859
16	587225	55	0.34572441454853
16	615516	56	3.1600037882214
16	643807	57	14.385725827732
16	673787	58	5.5203610459818
16	703770	59	5.553997651611
16	735354	60	5.277701500543
16	767070	61	9.7266628093888
16	800561	62	1.1719171091334
16	834053	63	1.7632024594299
16	869274	64	12.535324692393
16	904576	65	3.9666773705308
16	941569	66	8.733790778807
16	978562	67	3.775473039066
16	1017317	68	1.9674671678206
16	1056074	69	15.015294800695
16	1096670	70	3.6582041023078
16	1137213	71	2.75816150892
16	1179708	72	3.8541284774246
16	1223269	73	9.473484377043
16	1268807	74	8.01506279985
16	1314357	75	5.7306704695779
16	1361818	76	6.488295710593
16	1409026	77	6.9080563145727
16	1458310	78	4.5692395810743
16	1507576	79	2.428121988684
16	1558693	80	12.899129672603
16	1609755	81	6.5979840149108
16	1662769	82	1.3760680675229
16	1715669	83	11.585018920149
16	1770565	84	-1.5800660721963
16	1825326	85	7.7040996489983
16	1882428	86	9.3166804657181
16	1939408	87	7.0847918886125
16	1999007	88	-0.25165691554635
16	2058517	89	11.098989804651
16	2120431	90	8.6491852224751
16	2182333	91	6.7974277294015
16	2246873	92	4.5865945201426
16	2311437	93	1.0511648250976
16	2378467	94	4.9754990121126
16	2445417	95	8.2754190136787
16	2514778	96	10.728288620646
16	2584131	97	3.8221357121655
16	2655934	98	6.6212856823058
16	2727544	99	4.9473236856844
16	2801188	100	5.9154860323417
16	2874307	101	7.9369897646014
16	2949716	102	1.0638000739522
16	3024965	103	4.7436207980631
16	3102716	104	10.539912656015
16	3180521	105	1.9379048309313
16	3260638	106	13.574157245197
16	3340387	107	2.4462293732301
16	3422559	108	2.9328737065595
16	3504543	109	4.2041387601198
16	3588899	110	7.1842079788821
16	3672912	111	6.8376535396126
16	3759269	112	8.3011515066516
16	3845093	113	6.5336940826552
16	3933548	114	1.6036642564241
16	4021826	115	11.831729884663
16	4111540	116	-0.12823357158705
16	4201074	117	14.392096504596
16	4292341	118	6.2112888951588
16	4382955	119	0.085901062229212
16	4475862	120	6.876784516933
16	4568568	121	5.8548560738522
16	4663655	122	6.9265907852514
16	4758582	123	7.0345525867243
16	4855710	124	6.3006997321278
16	4952588	125	2.8428482946125
16	5051609	126	12.816308684577
16	5150342	127	-0.16604026207275
16	5251756	128	10.150065149026
16	5353189	129	7.0107800540191
16	5457289	130	-0.9664866109898
16	5561436	131	12.916309660234
16	5668094	132	-0.43404172813415
16	5774942	133	14.420298117738
16	5884487	134	2.3184655671124
16	5993637	135	6.4952755022802
16	6105217	136	2.0658926303524
16	6216616	137	11.143352048825
16	6330196	138	5.9722699534434
16	6443382	139	0.56674826508135
16	6559107	140	10.778350353477
16	6674493	141	7.8777160537221
16	6792885	142	2.2041279052798
16	6911437	143	7.8341897143741
16	7032847	144	5.5474579397546
16	7154421	145	7.8916381248968
16	7279018	146	1.8450382682586
16	7403496	147	5.6535907778566
16	7530778	148	13.100290592909
16	7657841	149	1.1048713429468
16	7787678	150	3.0760130071876
16	7917690	151	12.193556596452
16	8049250	152	7.0405905335485
16	8180935	153	1.8721295546394
16	8314610	154	3.5783297534742
16	8448133	155	15.369649732398
15	2048	7	0.04909136070637
15	3129	8	0.4095859156223
15	4210	9	-0.5261901699123
15	5861	10	-0.002890074683819
15	7512	11	-0.44512699678307
15	9853	12	0.58479653933318
15	12194	13	-0.62730714213103
15	15265	14	0.11194759426871
15	18416	15	0.30394493427593
15	22337	16	0.43880110461032
15	26258	17	-0.17226082447451
15	30989	18	-0.44709911715472
15	35720	19	-0.35998596344143
15	41381	20	0.45247300236952
15	46962	21	0.63223232486052
15	53513	22	-0.46581587288529
15	60064	23	-0.37955997075187
15	67625	24	-0.24199939653045
15	75186	25	1.1659465124831
15	83797	26	-1.0988096048823
15	92408	27	0.42786122212419
15	102109	28	0.49094391462859
15	111810	29	-0.69000332121504
15	122561	30	0.068923059443478
15	133312	31	0.12347837124253
15	145153	32	-0.031400426232722
15	156994	33	0.38513861130923
15	170045	34	-0.086599429778289
15	183096	35	-0.5919728227309
15	197397	36	1.0098971793195
15	211699	37	-0.40844459086657
15	227199	38	0.018282975652255
15	242703	39	-0.41717367450474
15	259534	40	-0.36393258342287
15	276367	41	0.2830026781885
15	294571	42	0.52977174695116
15	312666	43	-0.45933891000459
15	332172	44	0.27989106252789
15	351456	45	0.39840957528213
15	372114	46	-0.17758410365786
15	392690	47	-0.62578388489783
15	414687	48	0.017770173144527
15	436762	49	0.32750879065134
15	460258	50	0.23251084145159
15	483758	51	-0.50216744333738
15	508829	52	0.083755502710119
15	533820	53	0.23817694542231
15	560498	54	0.4031055176165
15	587225	55	-0.71153785072966
15	615516	56	-0.34523168695159
15	643807	57	1.0089964960935
15	673787	58	-0.083385833131615
15	703770	59	-0.076015377126168
15	735354	60	-0.10597525688354
15	767070	61	0.42397143261041
15	800561	62	-0.61270342965145
15	834053	63	-0.52409447089303
15	869274	64	0.79285900603281
15	904576	65	-0.26271323295077
15	941569	66	0.31737772224005
15	978562	67	-0.28772062680218
15	1017317	68	-0.49978804163402
15	1056074	69	1.0747981406166
15	1096670	70	-0.31163373671006
15	1137213	71	-0.41041426040465
15	1179708	72	-0.26320960925659
15	1223269	73	0.42469999665627
15	1268807	74	0.23038461455144
15	1314357	75	-0.051271476258989
15	1361818	76	0.041136234358419
15	1409026	77	0.089107984967995
15	1458310	78	-0.19337970239576
15	1507576	79	-0.44678339560051
15	1558693	80	0.81938666844508
15	1609755	81	0.040573551377747
15	1662769	82	-0.5869207289652
15	1715669	83	0.6506657769205
15	1770565	84	-0.95290750265121
15	1825326	85	0.2108275151113
15	1882428	86	0.39145182614448
15	1939408	87	0.1090135530103
15	1999007	88	-0.78344053996261
15	2058517	89	0.6164755197824
15	2120431	90	0.29580696689663
15	2182333	91	0.064418519323226
15	2246873	92	-0.20002324221423
15	2311437	93	-0.62213172874181
15	2378467	94	-0.1220856924192
15	2445417	95	0.28102951706387
15	2514778	96	0.55491160659585
15	2584131	97	-0.28769349271897
15	2655934	98	0.058284637343604
15	2727544	99	-0.14411433046916
15	2801188	100	-0.02223862305982
15	2874307	101	0.21918999380432
15	2949716	102	-0.61850670172134
15	3024965	103	-0.14728383917827
15	3102716	104	0.55514218169264
15	3180521	105	-0.50518697098596
15	3260638	106	0.90543069934938
15	3340387	107	-0.45439188659657
15	3422559	108	-0.38120610872284
15	3504543	109	-0.21239648776827
15	3588899	110	0.15955737966578
15	3672912	111	0.11039852950489
15	3759269	112	0.28055308706826
15	3845093	113	0.056494506716263
15	3933548	114	-0.54540719633223
15	4021826	115	0.70849829266081
15	4111540	116	-0.76453963149106
15	4201074	117	1.0089043248445
15	4292341	118	-0.0019176644855179
15	4382955	119	-0.74283207155531
15	4475862	120	0.11014170915587
15	4568568	121	-0.017798694316298
15	4663655	122	0.11194601247553
15	4758582	123	0.1197780444636
15	4855710	124	0.026741428300738
15	4952588	125	-0.39308144914685
15	5051609	126	0.81243493157672
15	5150342	127	-0.77458123938413
15	5251756	128	0.499486073968
15	5353189	129	0.10372313525295
15	5457289	130	-0.87119279429317
15	5561436	131	0.83890268200776
15	5668094	132	-0.80400398263009
15	5774942	133	1.0102947216365
15	5884487	134	-0.46975491015473
15	5993637	135	0.050926480034832
15	6105217	136	-0.48873045976507
15	6216616	137	0.62354324152693
15	6330196	138	-0.019506227981765
15	6443382	139	-0.67728394787991
15	6559107	140	0.58499690669123
15	6674493	141	0.21182534372201
15	6792885	142	-0.47839186765486
15	6911437	143	0.21954403375275
15	7032847	144	-0.063869398727547
15	7154421	145	0.21883624896873
15	7279018	146	-0.51955457020085
15	7403496	147	-0.036201616749167
15	7530778	148	0.84707550733583
15	7657841	149	-0.61804982222384
15	7787678	150	-0.35841257107677
15	7917690	151	0.75021788128652
15	8049250	152	0.1047571079107
15	8180935	153	-0.52086846291786
15	8314610	154	-0.29586814081995
15	8448133	155	1.1135722821928
12	1417	6	33.269186957883
12	2048	7	33.318278318589
12	3129	8	33.727864234212
12	4210	9	33.201674064299
12	5861	10	33.198783989616
12	7512	11	32.753656992833
12	9853	12	33.338453532166
12	12194	13	32.711146390035
12	15265	14	32.823093984303
12	18416	15	33.127038918579
12	22337	16	33.56584002319
12	26258	17	33.393579198715
12	30989	18	32.94648008156
12	35720	19	32.586494118119
12	41381	20	33.038967120488
12	46962	21	33.671199445349
12	53513	22	33.205383572464
12	60064	23	32.825823601712
12	67625	24	32.583824205181
12	75186	25	33.749770717664
12	83797	26	32.650961112782
12	92408	27	33.078822334906
12	102109	28	33.569766249535
12	111810	29	32.87976292832
12	122561	30	32.948685987763
12	133312	31	33.072164359006
12	145153	32	33.040763932773
12	156994	33	33.425902544082
12	170045	34	33.339303114304
12	183096	35	32.747330291573
12	197397	36	33.757227470893
12	211699	37	33.348782880026
12	227199	38	33.367065855678
12	242703	39	32.949892181174
12	259534	40	32.585959597751
12	276367	41	32.868962275939
12	294571	42	33.398734022891
12	312666	43	32.939395112886
[...]
398	11585535	176	551.57912381205
398	11746032	177	583.98259704736
398	11906557	178	617.40128109668
398	12065331	179	650.58323468888
398	12226922	180	683.04854641798
399	8998377	159	29.95
399	9140172	160	29.95
399	9282661	161	29.95
399	9427030	162	29.95
399	9571347	163	29.95
399	9719170	164	29.95
399	9866783	165	29.95
399	10017458	166	29.95
399	10168458	167	29.95
399	10322652	168	29.95
399	10476630	169	29.95
399	10633866	170	29.95
399	10791494	171	29.95
399	10948774	172	29.95
399	11106145	173	29.95
399	11264837	174	29.95
399	11423806	175	29.95
399	11585535	176	26.65
399	11746032	177	26.65
399	11906557	178	26.65
399	12065331	179	26.65
399	12226922	180	26.65
400	8998377	159	-0.31336481770268
400	9140172	160	-0.30917630385375
400	9282661	161	0.52111352531938
400	9427030	162	-0.51742101844866
400	9571347	163	0.30058791104238
400	9719170	164	0.37837712734472
400	9866783	165	-0.73766342742601
400	10017458	166	0.24086500779958
400	10168458	167	0.65298459056066
400	10322652	168	0.058385915472172
400	10476630	169	0.21988748834701
400	10633866	170	-0.045841178798582
400	10791494	171	-0.5773147230676
400	10948774	172	-0.015033434307362
400	11106145	173	-0.90335505019641
400	11264837	174	-0.45787478509359
400	11423806	175	0.16185586774839
400	11585535	176	0.12375440854143
400	11746032	177	0.26863278863391
400	11906557	178	-0.67430154679764
400	12065331	179	1.0290577027095
400	12226922	180	-1.1262003749142
401	8998377	159	3.095733216575
401	9140172	160	3.0522114812164
401	9282661	161	9.4910016965719
401	9427030	162	1.4961631981955
401	9571347	163	7.7292121879951
401	9719170	164	8.4733263018286
401	9866783	165	-0.15849600615416
401	10017458	166	7.2337036322782
401	10168458	167	10.647184975726
401	10322652	168	6.1020987598448
401	10476630	169	7.4291027704598
401	10633866	170	5.3562788065074
401	10791494	171	1.1366488407131
401	10948774	172	5.4021598066827
401	11106145	173	-1.4293283602866
401	11264837	174	1.766759610103
401	11423806	175	6.322911442025
401	11585535	176	6.0859705668486
401	11746032	177	7.2480504817275
401	11906557	178	0.17848320316148
401	12065331	179	13.071325136353
401	12226922	180	0.973
402	9140172	160	32.519577486013
402	9282661	161	32.993256164694
402	9427030	162	33.453252578832
402	9571347	163	33.643459897934
402	9719170	164	32.894487980733
402	9866783	165	33.539282017658
402	10017458	166	33.080658196626
402	10168458	167	32.594234985781
402	10322652	168	33.262922612406
402	10476630	169	32.421198024007
402	10633866	170	32.834604944431
402	10791494	171	32.500311059331
402	10948774	172	32.245151208321
402	11106145	173	32.370225666089
402	11264837	174	30.815002411556
402	11423806	175	30.31149857764
402	11585535	176	32.403473235309
402	11746032	177	33.418684049314
402	11906557	178	33.181953592205
402	12065331	179	32.465311729096
402	12226922	180	32.883626448669
403	9282661	161	30.1
403	9427030	162	30.1
403	9571347	163	63.162081231914
403	9719170	164	96.939486755496
403	9866783	165	130.51575280805
403	10017458	166	164.17669456299
403	10168458	167	197.10805055765
403	10322652	168	230.44919335014
403	10476630	169	264.53312280959
403	10633866	170	297.94986204325
403	10791494	171	332.0259867995
403	10948774	172	366.0521609743
403	11106145	173	400.06247488427
403	11264837	174	434.06819934108
403	11423806	175	467.16138534476
403	11585535	176	500.7662860845
403	11746032	177	533.81169976197
403	11906557	178	567.78766500702
403	12065331	179	601.30145974454
403	12226922	180	634.59698610296
404	9282661	161	29.95
404	9427030	162	29.95
404	9571347	163	29.95
404	9719170	164	29.95
404	9866783	165	29.95
404	10017458	166	29.95
404	10168458	167	29.95
404	10322652	168	29.95
404	10476630	169	29.95
404	10633866	170	29.95
404	10791494	171	29.95
404	10948774	172	29.95
404	11106145	173	29.95
404	11264837	174	29.95
404	11423806	175	29.95
404	11585535	176	29.95
404	11746032	177	29.95
404	11906557	178	29.95
404	12065331	179	29.95
404	12226922	180	29.95
405	9282661	161	0.47367867868161
405	9427030	162	0.459996414138
405	9571347	163	0.19020731910132
405	9719170	164	-0.74897191720083
405	9866783	165	0.6447940369253
405	10017458	166	-0.45862382103223
405	10168458	167	-0.48642321084456
405	10322652	168	0.66868762662464
405	10476630	169	-0.84172458839907
405	10633866	170	0.41340692042444
405	10791494	171	-0.33429388509978
405	10948774	172	-0.25515985101016
405	11106145	173	0.12507445776782
405	11264837	174	-1.5552232545327
405	11423806	175	-0.50350383391677
405	11585535	176	2.0919746576692
405	11746032	177	1.0152108140055
405	11906557	178	-0.23673045710893
405	12065331	179	-0.71664186310954
405	12226922	180	0.41831471957266
406	9282661	161	9.7857762807119
406	9427030	162	9.8908832664488
406	9571347	163	7.7930038832841
406	9719170	164	0.047379397285519
406	9866783	165	11.42503419171
406	10017458	166	2.3936828324716
406	10168458	167	2.0602479099702
406	10322652	168	11.474851258927
406	10476630	169	-0.75464154995677
406	10633866	170	9.2354411418082
406	10791494	171	3.2307178859106
406	10948774	172	3.779814545131
406	11106145	173	6.780630556824
406	11264837	174	0.973
406	11423806	175	1.4668295394979
406	11585535	176	22.152891278134
406	11746032	177	14.346315957708
406	11906557	178	4.1926363624893
406	12065331	179	0.23007071007472
406	12226922	180	9.296252812623
407	9427030	162	33.062081231914
407	9571347	163	33.777405523582
407	9719170	164	33.576266052554
407	9866783	165	33.660941754937
407	10017458	166	32.931355994664
407	10168458	167	33.341142792491
407	10322652	168	34.083929459451
407	10476630	169	33.416739233657
407	10633866	170	34.076124756251
407	10791494	171	34.0261741748
407	10948774	172	34.01031390997
407	11106145	173	34.005724456805
407	11264837	174	33.093186003683
407	11423806	175	33.604900739741
407	11585535	176	33.045413677468
407	11746032	177	33.975965245048
407	11906557	178	33.513794737522
407	12065331	179	33.295526358419
407	12226922	180	33.987438360349
408	9571347	163	30.1
408	9719170	164	30.1
408	9866783	165	61.557958795254
408	10017458	166	93.971955738361
408	10168458	167	126.02553147752
408	10322652	168	158.05262691056
408	10476630	169	190.33934951725
408	10633866	170	222.11834067928
408	10791494	171	254.74315442525
408	10948774	172	286.15846249033
408	11106145	173	317.84634126272
408	11264837	174	349.4441097637
408	11423806	175	381.77212829427
408	11585535	176	413.63547383144
408	11746032	177	445.98595033075
408	11906557	178	477.67383643818
408	12065331	179	509.23338602532
408	12226922	180	541.36259890997
409	9571347	163	29.95
409	9719170	164	29.95
409	9866783	165	29.95
409	10017458	166	29.95
409	10168458	167	29.95
409	10322652	168	29.95
409	10476630	169	29.95
409	10633866	170	29.95
409	10791494	171	29.95
409	10948774	172	29.95
409	11106145	173	29.95
409	11264837	174	29.95
409	11423806	175	29.95
409	11585535	176	29.95
409	11746032	177	29.95
409	11906557	178	29.95
409	12065331	179	29.95
409	12226922	180	29.95
410	9571347	163	0.71532429166837
410	9719170	164	-0.201139471028
410	9866783	165	0.08467570238281
410	10017458	166	-0.72958576027304
410	10168458	167	0.40978679782711
410	10322652	168	0.74278666696046
410	10476630	169	-0.66719022579491
410	10633866	170	0.65938552259468
410	10791494	171	-0.049950581451412
410	10948774	172	-0.015860264829826
410	11106145	173	-0.0045894531649537
410	11264837	174	-0.91253845312167
410	11423806	175	0.51171473605791
410	11585535	176	-0.55948706227355
410	11746032	177	0.93055156758055
410	11906557	178	-0.46217050752603
410	12065331	179	-0.21826837910339
410	12226922	180	0.69191200193018
411	9571347	163	12.122428298635
411	9719170	164	4.5989152732023
411	9866783	165	6.944032482533
411	10017458	166	0.20742873861562
411	10168458	167	9.4349472493259
411	10322652	168	12.513441457831
411	10476630	169	0.79603841102526
411	10633866	170	11.824236589969
411	10791494	171	5.9810638664416
411	10948774	172	6.2548238787509
411	11106145	173	6.3455175892659
411	11264837	174	-1.2234736501902
411	11423806	175	10.381112810193
411	11585535	176	1.5819313441536
411	11746032	177	13.991714931692
411	11906557	178	2.4711461600204
411	12065331	179	4.3745536069261
411	12226922	180	12.043822921194
412	9719170	164	31.457958795254
412	9866783	165	32.413996943106
412	10017458	166	32.053575739156
412	10168458	167	32.027095433041
412	10322652	168	32.286722606696
412	10476630	169	31.778991162028
412	10633866	170	32.62481374597
412	10791494	171	31.41530806508
412	10948774	172	31.687878772391
412	11106145	173	31.597768500979
412	11264837	174	32.328018530571
412	11423806	175	31.863345537168
412	11585535	176	32.350476499305
412	11746032	177	31.68788610743
412	11906557	178	31.559549587146
412	12065331	179	32.129212884648
412	12226922	180	32.366929319579
413	9866783	165	30.1
413	10017458	166	30.1
413	10168458	167	59.363600082564
413	10322652	168	88.564811363239
413	10476630	169	117.79050414668
413	10633866	170	146.95453058921
413	10791494	171	176.88390325785
413	10948774	172	205.73180512213
413	11106145	173	234.970699087
413	11264837	174	264.80079608848
413	11423806	175	294.09365736067
413	11585535	176	323.91736225206
413	11746032	177	353.06390531874
413	11906557	178	382.47020544889
413	12065331	179	411.54236528736
413	12226922	180	440.81112094702
414	9866783	165	29.95
414	10017458	166	29.95
414	10168458	167	29.95
414	10322652	168	29.95
414	10476630	169	29.95
414	10633866	170	29.95
414	10791494	171	29.95
414	10948774	172	29.95
414	11106145	173	29.95
414	11264837	174	29.95
414	11423806	175	29.95
414	11585535	176	29.95
414	11746032	177	29.95
414	11906557	178	29.95
414	12065331	179	29.95
414	12226922	180	29.95
415	9866783	165	0.95603814785136
415	10017458	166	-0.36042120394995
415	10168458	167	-0.026480306114536
415	10322652	168	0.25962717365474
415	10476630	169	-0.50773144466802
415	10633866	170	0.84582258394221
415	10791494	171	-1.2095056808903
415	10948774	172	0.27257070731139
415	11106145	173	-0.090110271412414
415	11264837	174	0.73025002959184
415	11423806	175	-0.46467299340293
415	11585535	176	0.4871309621376
415	11746032	177	-0.66259039187571
415	11906557	178	-0.12833652028348
415	12065331	179	0.56966329750139
415	12226922	180	0.23771643493092
416	9866783	165	13.288089461543
416	10017458	166	2.9143432561937
416	10168458	167	5.4853650556236
416	10322652	168	7.7968673348813
416	10476630	169	1.7192206774257
416	10633866	170	12.542039252221
416	10791494	171	0.973
416	10948774	172	7.6595415177216
416	11106145	173	4.8624325334864
416	11264837	174	11.480036206978
416	11423806	175	2.0672887067465
416	11585535	176	9.5961118523106
416	11746032	177	0.51792429942941
416	11906557	178	4.5601133371436
416	12065331	179	10.134784529729
416	12226922	180	7.6580708967312
417	10017458	166	29.263600082564
417	10168458	167	29.201211280675
417	10322652	168	29.225692783444
417	10476630	169	29.164026442527
417	10633866	170	29.929372668635
417	10791494	171	28.847901864288
417	10948774	172	29.238893964871
417	11106145	173	29.830097001473
417	11264837	174	29.292861272193
417	11423806	175	29.823704891392
417	11585535	176	29.146543066677
417	11746032	177	29.406300130145
417	11906557	178	29.072159838475
417	12065331	179	29.268755659655
417	12226922	180	28.801483972425
418	10168458	167	30.1
418	10322652	168	30.1
418	10476630	169	63.737913082547
418	10633866	170	96.014165912552
418	10791494	171	128.32360404568
418	10948774	172	160.41468973277
418	11106145	173	191.04277927143
418	11264837	174	223.64587529481
418	11423806	175	256.65829244547
418	11585535	176	290.48583946906
418	11746032	177	324.4639428131
418	11906557	178	357.48581211052
418	12065331	179	391.11531139443
418	12226922	180	425.15842384232
419	10168458	167	29.95
419	10322652	168	29.95
419	10476630	169	29.95
419	10633866	170	29.95
419	10791494	171	29.95
419	10948774	172	29.95
419	11106145	173	26.65
419	11264837	174	26.65
419	11423806	175	26.65
419	11585535	176	26.65
419	11746032	177	26.65
419	11906557	178	26.65
419	12065331	179	26.65
419	12226922	180	26.65
420	10168458	167	-0.062388801889028
420	10322652	168	0.024481502769049
420	10476630	169	-0.061666340916418
420	10633866	170	0.76534622610779
420	10791494	171	-1.0814708043472
420	10948774	172	0.39099210058339
420	11106145	173	0.59120303660166
420	11264837	174	-0.53723572927993
420	11423806	175	0.530843619199
420	11585535	176	-0.67716182471486
420	11746032	177	0.25975706346799
420	11906557	178	-0.33414029167034
420	12065331	179	0.19659582118038
420	12226922	180	-0.4672716872301
421	10168458	167	4.3798570825868
421	10322652	168	4.9983218356862
421	10476630	169	4.3749239862838
421	10633866	170	10.550874172002
421	10791494	171	0.973
421	10948774	172	7.584806707811
421	11106145	173	9.2512856650718
421	11264837	174	1.0524071249057
421	11423806	175	8.8146564787009
421	11585535	176	0.046786463164734
421	11746032	177	6.7184956026488
421	11906557	178	2.4412124378595
421	12065331	179	6.2249167012727
421	12226922	180	1.4630531429055
422	10322652	168	33.637913082547
422	10476630	169	32.276252830004
422	10633866	170	32.309438133124
422	10791494	171	32.091085687091
422	10948774	172	30.628089538664
422	11106145	173	32.603096023382
422	11264837	174	33.012417150657
422	11423806	175	33.827547023592
422	11585535	176	33.978103344033
422	11746032	177	33.021869297426
422	11906557	178	33.629499283906
422	12065331	179	34.043112447888
422	12226922	180	32.99329921434
423	10476630	169	30.1
423	10633866	170	30.1
423	10791494	171	60.01425901279
423	10948774	172	91.071222519995
423	11106145	173	121.66856653531
423	11264837	174	151.5747019228
423	11423806	175	181.51912959517
423	11585535	176	211.58658522586
423	11746032	177	241.73428289392
423	11906557	178	271.86154433157
423	12065331	179	302.03657893538
423	12226922	180	332.96993736083
424	10476630	169	29.95
424	10633866	170	29.95
424	10791494	171	29.95
424	10948774	172	29.95
424	11106145	173	29.95
424	11264837	174	29.95
424	11423806	175	29.95
424	11585535	176	29.95
424	11746032	177	29.95
424	11906557	178	29.95
424	12065331	179	29.95
424	12226922	180	29.95
425	10476630	169	-1.3616602525428
425	10633866	170	0.033185303119872
425	10791494	171	-0.21835244603312
425	10948774	172	-1.4629961484266
425	11106145	173	1.9750064847176
425	11264837	174	0.40932112727479
425	11423806	175	0.81512987293536
425	11585535	176	0.15055632044096
425	11746032	177	-0.95623404660728
425	11906557	178	0.60762998647988
425	12065331	179	0.41361316398252
425	12226922	180	-1.0498132335488
426	10476630	169	0.973
426	10633866	170	6.0427449785428
426	10791494	171	4.0223405177715
426	10948774	172	0.973
426	11106145	173	21.402551351506
426	11264837	174	9.2826435749453
426	11423806	175	12.963027801272
426	11585535	176	7.605816680801
426	11746032	177	-1.5805698510897
426	11906557	178	11.170402421615
426	12065331	179	9.7903724459313
426	12226922	180	-2.3280746481192
427	10633866	170	29.91425901279
427	10791494	171	31.056963507204
427	10948774	172	30.597344015319
427	11106145	173	29.906135387488
427	11264837	174	29.944427672368
427	11423806	175	30.067455630693
427	11585535	176	30.147697668059
427	11746032	177	30.127261437652
427	11906557	178	30.175034603804
427	12065331	179	30.933358425451
427	12226922	180	30.985130254181
428	10791494	171	30.1
428	10948774	172	30.1
428	11106145	173	63.9085280742
428	11264837	174	97.951691917266
428	11423806	175	130.46681348793
428	11585535	176	162.94739044166
428	11746032	177	195.03384768903
428	11906557	178	226.97582649855
428	12065331	179	261.34329251181
428	12226922	180	294.82974868891
429	10791494	171	29.95
429	10948774	172	29.95
429	11106145	173	29.95
429	11264837	174	29.95
429	11423806	175	29.95
429	11585535	176	29.95
429	11746032	177	29.95
429	11906557	178	26.65
429	12065331	179	26.65
429	12226922	180	26.65
430	10791494	171	1.1427044944139
430	10948774	172	-0.45961949188495
430	11106145	173	-0.69120862783166
430	11264837	174	0.038292284880299
430	11423806	175	0.12302795832511
430	11585535	176	0.080242037365679
430	11746032	177	-0.020436230406631
430	11906557	178	0.047773166152183
430	12065331	179	0.75832382164663
430	12226922	180	0.051771828730125
431	10791494	171	13.928278582193
431	10948774	172	1.8430075771839
431	11106145	173	0.041760623627673
431	11264837	174	5.3112539697725
431	11423806	175	5.9630388439298
431	11585535	176	5.6785817103696
431	11746032	177	4.9410648942745
431	11906557	178	5.4512015194188
431	12065331	179	10.989832134911
431	12226922	180	5.7394253650156
432	10948774	172	33.8085280742
432	11106145	173	34.043163843066
432	11264837	174	32.515121570664
432	11423806	175	32.480576953728
432	11585535	176	32.086457247376
432	11746032	177	31.941978809514
432	11906557	178	34.367466013258
432	12065331	179	33.486456177101
432	12226922	180	33.350816955694
433	11106145	173	30.1
433	11264837	174	30.1
433	11423806	175	63.254375242692
433	11585535	176	96.182182868755
433	11746032	177	128.37168090619
433	11906557	178	161.33142908163
433	12065331	179	193.8544966104
433	12226922	180	226.06887344583
434	11106145	173	29.95
434	11264837	174	29.95
434	11423806	175	29.95
434	11585535	176	29.95
434	11746032	177	29.95
434	11906557	178	29.95
434	12065331	179	29.95
434	12226922	180	29.95
435	11106145	173	0.2346357688657
435	11264837	174	-1.5280422724015
435	11423806	175	-0.034544616935733
435	11585535	176	-0.39411970635258
435	11746032	177	-0.14447843786208
435	11906557	178	2.4254872037447
435	12065331	179	-0.88100983615732
435	12226922	180	-0.13563922140747
436	11106145	173	8.3219939701584
436	11264837	174	0.973
436	11423806	175	5.5719655366934
436	11585535	176	2.6618605782205
436	11746032	177	4.5493188662985
436	11906557	178	26.606989684767
436	12065331	179	-0.91576261129968
436	12226922	180	5.0554633573999
437	11264837	174	33.154375242692
437	11423806	175	32.927807626064
437	11585535	176	32.189498037431
437	11746032	177	32.959748175443
437	11906557	178	32.523067528771
437	12065331	179	32.214376835426
437	12226922	180	32.931952324387
438	11423806	175	30.1
438	11585535	176	30.1
438	11746032	177	63.812044541828
438	11906557	178	97.57098875509
438	12065331	179	130.88681152409
438	12226922	180	164.99854456741
439	11423806	175	29.95
439	11585535	176	29.95
439	11746032	177	29.95
439	11906557	178	29.95
439	12065331	179	29.95
439	12226922	180	29.95
440	11423806	175	-0.22656761662802
440	11585535	176	-0.73830958863255
440	11746032	177	0.77025013801176
440	11906557	178	-0.43668064667145
440	12065331	179	-0.30869069334585
440	12226922	180	0.7175754889613
441	11423806	175	4.1985667416154
441	11585535	176	0.016427438338318
441	11746032	177	12.125992191028
441	11906557	178	2.4341349744506
441	12065331	179	3.3557676368184
441	12226922	180	11.693072590464
442	11585535	176	33.712044541828
442	11746032	177	33.758944213262
442	11906557	178	33.315822769002
442	12065331	179	34.111733043321
442	12226922	180	33.766643609199
443	11746032	177	30.1
443	11906557	178	30.1
443	12065331	179	61.482842814213
443	12226922	180	92.669052545612
444	11746032	177	29.95
444	11906557	178	29.95
444	12065331	179	29.95
444	12226922	180	29.95
445	11746032	177	0.046899671433493
445	11906557	178	-0.4431214442593
445	12065331	179	0.79591027431889
445	12226922	180	-0.3450894341222
446	11746032	177	6.6742814700891
446	11906557	178	2.5753338253274
446	12065331	179	12.965443967191
446	12226922	180	3.4872585724093
447	11906557	178	31.382842814213
447	12065331	179	31.186209731399
447	12226922	180	31.456548659202
448	12065331	179	30.1
448	12226922	180	30.1
449	12065331	179	26.65
449	12226922	180	26.65
450	12065331	179	-0.19663308281451
450	12226922	180	0.2703389278031
451	12065331	179	3.938503409156
451	12226922	180	7.5523615167809
452	12226922	180	33.278408654446

