version 2
run Scenario2_356B-0-20180428-22:57:53-10716
attr configname Scenario2_356B
attr datetime 20180428-22:57:53
attr experiment Scenario2_356B
attr inifile omnetpp.ini
attr iterationvars ""
attr iterationvarsf ""
attr measurement ""
attr network HighwayScenario1
attr processid 10716
attr repetition 0
attr replication #0
attr resultdir results
attr runnumber 0
attr seedset 0
param *.ambulanceNode[*].applType "\"AmbulanceAppLayer\""
param *.ambulanceNode[*].appl.messageLength 356
param *.ambulanceNode[*].appl.signDelay 0.0008
param *.ambulanceNode[*].appl.verifyDelay 0.0030
param *.node[*].applType "\"NormalAppLayer\""
param *.node[*].appl.messageLength 256
param *.node[*].appl.headerLength "80 bit"
param *.node[*].appl.sendBeacons true
param *.node[*].appl.dataOnSch false
param *.node[*].appl.beaconInterval 0.1s
param *.node[*].appl.signDelay 0.0008
param *.node[*].appl.verifyDelay 0.0030
param **.debug false
param **.coreDebug false
param *.playgroundSizeX 5500m
param *.playgroundSizeY 500m
param *.playgroundSizeZ 50m
param *.annotations.draw false
param *.obstacles.debug false
param *.manager.updateInterval 1s
param *.manager.host "\"localhost\""
param *.manager.port 9999
param *.manager.autoShutdown true
param *.manager.launchConfig "xmldoc(\"highway.launchd.xml\")"
param *.connectionManager.sendDirect true
param *.connectionManager.maxInterfDist 2600m
param *.connectionManager.drawMaxIntfDist false
param *.**.nic.mac1609_4.useServiceChannel false
param *.**.nic.mac1609_4.txPower 20mW
param *.**.nic.mac1609_4.bitrate 6Mbps
param *.**.nic.phy80211p.sensitivity -89dBm
param *.**.nic.phy80211p.useThermalNoise true
param *.**.nic.phy80211p.thermalNoise -110dBm
param *.**.nic.phy80211p.decider "xmldoc(\"config.xml\")"
param *.**.nic.phy80211p.analogueModels "xmldoc(\"config.xml\")"
param *.**.nic.phy80211p.usePropagationDelay true
param *.**.nic.phy80211p.antenna "xmldoc(\"antenna.xml\", \"/root/Antenna[@id='monopole']\")"
param *.manager.moduleType "\"ambulance=org.car2x.veins.nodes.Car attacker=org.car2x.veins.nodes.Car *=org.car2x.veins.nodes.Car\""
param *.manager.moduleName "\"ambulance=ambulanceNode attacker=attackerNode *=node\""
param *.node[*].veinsmobilityType.debug true
param *.node[*].veinsmobility.x 0
param *.node[*].veinsmobility.y 0
param *.node[*].veinsmobility.z 1.895
param *.ambulanceNode[*].veinsmobilityType.debug true
param *.ambulanceNode[*].veinsmobility.x 0
param *.ambulanceNode[*].veinsmobility.y 0
param *.ambulanceNode[*].veinsmobility.z 1.895
param *.attackerNode[*].veinsmobilityType.debug true
param *.attackerNode[*].veinsmobility.x 0
param *.attackerNode[*].veinsmobility.y 0
param *.attackerNode[*].veinsmobility.z 1.895

scalar HighwayScenario1.node[0].appl generatedWSMs 0
scalar HighwayScenario1.node[0].appl receivedWSMs 0
scalar HighwayScenario1.node[0].appl generatedBSMs 1500
scalar HighwayScenario1.node[0].appl receivedBSMs 4500
scalar HighwayScenario1.node[0].appl generatedWSAs 0
scalar HighwayScenario1.node[0].appl receivedWSAs 0
scalar HighwayScenario1.node[0].appl delayBSM_P1 0.00040029766418645
scalar HighwayScenario1.node[0].appl delayBSM_P2 0
scalar HighwayScenario1.node[0].nic.phy80211p busyTime 0.011759999999999
scalar HighwayScenario1.node[0].nic.mac1609_4 ReceivedUnicastPackets 0
scalar HighwayScenario1.node[0].nic.mac1609_4 ReceivedBroadcasts 4500
scalar HighwayScenario1.node[0].nic.mac1609_4 SentPackets 1500
scalar HighwayScenario1.node[0].nic.mac1609_4 SNIRLostPackets 0
scalar HighwayScenario1.node[0].nic.mac1609_4 RXTXLostPackets 0
scalar HighwayScenario1.node[0].nic.mac1609_4 TotalLostPackets 0
scalar HighwayScenario1.node[0].nic.mac1609_4 DroppedPacketsInMac 0
scalar HighwayScenario1.node[0].nic.mac1609_4 TooLittleTime 0
scalar HighwayScenario1.node[0].nic.mac1609_4 TimesIntoBackoff 1500
scalar HighwayScenario1.node[0].nic.mac1609_4 SlotsBackoff 2246
scalar HighwayScenario1.node[0].nic.mac1609_4 NumInternalContention 0
scalar HighwayScenario1.node[0].nic.mac1609_4 totalBusyTime 2.3535
scalar HighwayScenario1.node[0].veinsmobility startTime 1
scalar HighwayScenario1.node[0].veinsmobility totalTime 149
scalar HighwayScenario1.node[0].veinsmobility stopTime 151
scalar HighwayScenario1.node[0].veinsmobility minSpeed 32.860070072164
scalar HighwayScenario1.node[0].veinsmobility maxSpeed 34.081829101013
scalar HighwayScenario1.node[0].veinsmobility totalDistance 4983.0096256411
scalar HighwayScenario1.node[0].veinsmobility totalCO2Emission 931.97440204326
scalar HighwayScenario1.node[1].appl generatedWSMs 0
scalar HighwayScenario1.node[1].appl receivedWSMs 0
scalar HighwayScenario1.node[1].appl generatedBSMs 1500
scalar HighwayScenario1.node[1].appl receivedBSMs 6000
scalar HighwayScenario1.node[1].appl generatedWSAs 0
scalar HighwayScenario1.node[1].appl receivedWSAs 0
scalar HighwayScenario1.node[1].appl delayBSM_P1 0.000400242095998
scalar HighwayScenario1.node[1].appl delayBSM_P2 0
scalar HighwayScenario1.node[1].nic.phy80211p busyTime 0.01568
scalar HighwayScenario1.node[1].nic.mac1609_4 ReceivedUnicastPackets 0
scalar HighwayScenario1.node[1].nic.mac1609_4 ReceivedBroadcasts 6000
scalar HighwayScenario1.node[1].nic.mac1609_4 SentPackets 1500
scalar HighwayScenario1.node[1].nic.mac1609_4 SNIRLostPackets 0
scalar HighwayScenario1.node[1].nic.mac1609_4 RXTXLostPackets 0
scalar HighwayScenario1.node[1].nic.mac1609_4 TotalLostPackets 0
scalar HighwayScenario1.node[1].nic.mac1609_4 DroppedPacketsInMac 0
scalar HighwayScenario1.node[1].nic.mac1609_4 TooLittleTime 0
scalar HighwayScenario1.node[1].nic.mac1609_4 TimesIntoBackoff 1500
scalar HighwayScenario1.node[1].nic.mac1609_4 SlotsBackoff 2263
scalar HighwayScenario1.node[1].nic.mac1609_4 NumInternalContention 0
scalar HighwayScenario1.node[1].nic.mac1609_4 totalBusyTime 2.9415
scalar HighwayScenario1.node[1].veinsmobility startTime 3
scalar HighwayScenario1.node[1].veinsmobility totalTime 149
scalar HighwayScenario1.node[1].veinsmobility stopTime 153
scalar HighwayScenario1.node[1].veinsmobility minSpeed 32.789757600441
scalar HighwayScenario1.node[1].veinsmobility maxSpeed 34.014829106492
scalar HighwayScenario1.node[1].veinsmobility totalDistance 4974.3580870107
scalar HighwayScenario1.node[1].veinsmobility totalCO2Emission 932.08951743864
scalar HighwayScenario1.node[2].appl generatedWSMs 0
scalar HighwayScenario1.node[2].appl receivedWSMs 0
scalar HighwayScenario1.node[2].appl generatedBSMs 1510
scalar HighwayScenario1.node[2].appl receivedBSMs 7840
scalar HighwayScenario1.node[2].appl generatedWSAs 0
scalar HighwayScenario1.node[2].appl receivedWSAs 0
scalar HighwayScenario1.node[2].appl delayBSM_P1 0.00040025748418342
scalar HighwayScenario1.node[2].appl delayBSM_P2 0
scalar HighwayScenario1.node[2].nic.phy80211p busyTime 0.020352847682121
scalar HighwayScenario1.node[2].nic.mac1609_4 ReceivedUnicastPackets 0
scalar HighwayScenario1.node[2].nic.mac1609_4 ReceivedBroadcasts 7840
scalar HighwayScenario1.node[2].nic.mac1609_4 SentPackets 1510
scalar HighwayScenario1.node[2].nic.mac1609_4 SNIRLostPackets 0
scalar HighwayScenario1.node[2].nic.mac1609_4 RXTXLostPackets 0
scalar HighwayScenario1.node[2].nic.mac1609_4 TotalLostPackets 0
scalar HighwayScenario1.node[2].nic.mac1609_4 DroppedPacketsInMac 0
scalar HighwayScenario1.node[2].nic.mac1609_4 TooLittleTime 0
scalar HighwayScenario1.node[2].nic.mac1609_4 TimesIntoBackoff 1510
scalar HighwayScenario1.node[2].nic.mac1609_4 SlotsBackoff 2274
scalar HighwayScenario1.node[2].nic.mac1609_4 NumInternalContention 0
scalar HighwayScenario1.node[2].nic.mac1609_4 totalBusyTime 3.66671
scalar HighwayScenario1.node[2].veinsmobility startTime 5
scalar HighwayScenario1.node[2].veinsmobility totalTime 150
scalar HighwayScenario1.node[2].veinsmobility stopTime 156
scalar HighwayScenario1.node[2].veinsmobility minSpeed 32.558218552118
scalar HighwayScenario1.node[2].veinsmobility maxSpeed 33.766583233924
scalar HighwayScenario1.node[2].veinsmobility totalDistance 4977.0668563657
scalar HighwayScenario1.node[2].veinsmobility totalCO2Emission 913.59643265108
scalar HighwayScenario1.node[6].appl generatedWSMs 0
scalar HighwayScenario1.node[6].appl receivedWSMs 0
scalar HighwayScenario1.node[6].appl generatedBSMs 1480
scalar HighwayScenario1.node[6].appl receivedBSMs 12700
scalar HighwayScenario1.node[6].appl generatedWSAs 0
scalar HighwayScenario1.node[6].appl receivedWSAs 0
scalar HighwayScenario1.node[6].appl delayBSM_P1 0.00041056271010197
scalar HighwayScenario1.node[6].appl delayBSM_P2 0
scalar HighwayScenario1.node[6].nic.phy80211p busyTime 0.033637837837838
scalar HighwayScenario1.node[6].nic.mac1609_4 ReceivedUnicastPackets 0
scalar HighwayScenario1.node[6].nic.mac1609_4 ReceivedBroadcasts 12700
scalar HighwayScenario1.node[6].nic.mac1609_4 SentPackets 1480
scalar HighwayScenario1.node[6].nic.mac1609_4 SNIRLostPackets 0
scalar HighwayScenario1.node[6].nic.mac1609_4 RXTXLostPackets 0
scalar HighwayScenario1.node[6].nic.mac1609_4 TotalLostPackets 0
scalar HighwayScenario1.node[6].nic.mac1609_4 DroppedPacketsInMac 0
scalar HighwayScenario1.node[6].nic.mac1609_4 TooLittleTime 0
scalar HighwayScenario1.node[6].nic.mac1609_4 TimesIntoBackoff 1480
scalar HighwayScenario1.node[6].nic.mac1609_4 SlotsBackoff 2291
scalar HighwayScenario1.node[6].nic.mac1609_4 NumInternalContention 0
scalar HighwayScenario1.node[6].nic.mac1609_4 totalBusyTime 5.56004
scalar HighwayScenario1.node[6].veinsmobility startTime 13
scalar HighwayScenario1.node[6].veinsmobility totalTime 147
scalar HighwayScenario1.node[6].veinsmobility stopTime 161
scalar HighwayScenario1.node[6].veinsmobility minSpeed 30.203244476682
scalar HighwayScenario1.node[6].veinsmobility maxSpeed 36.033413916302
scalar HighwayScenario1.node[6].veinsmobility totalDistance 4967.806252512
scalar HighwayScenario1.node[6].veinsmobility totalCO2Emission 988.73916464985
scalar HighwayScenario1.node[5].appl generatedWSMs 0
scalar HighwayScenario1.node[5].appl receivedWSMs 0
scalar HighwayScenario1.node[5].appl generatedBSMs 1600
scalar HighwayScenario1.node[5].appl receivedBSMs 13580
scalar HighwayScenario1.node[5].appl generatedWSAs 0
scalar HighwayScenario1.node[5].appl receivedWSAs 0
scalar HighwayScenario1.node[5].appl delayBSM_P1 0.0004254417204754
scalar HighwayScenario1.node[5].appl delayBSM_P2 0
scalar HighwayScenario1.node[5].nic.phy80211p busyTime 0.033270999999998
scalar HighwayScenario1.node[5].nic.mac1609_4 ReceivedUnicastPackets 0
scalar HighwayScenario1.node[5].nic.mac1609_4 ReceivedBroadcasts 13580
scalar HighwayScenario1.node[5].nic.mac1609_4 SentPackets 1600
scalar HighwayScenario1.node[5].nic.mac1609_4 SNIRLostPackets 0
scalar HighwayScenario1.node[5].nic.mac1609_4 RXTXLostPackets 0
scalar HighwayScenario1.node[5].nic.mac1609_4 TotalLostPackets 0
scalar HighwayScenario1.node[5].nic.mac1609_4 DroppedPacketsInMac 0
scalar HighwayScenario1.node[5].nic.mac1609_4 TooLittleTime 0
scalar HighwayScenario1.node[5].nic.mac1609_4 TimesIntoBackoff 1600
scalar HighwayScenario1.node[5].nic.mac1609_4 SlotsBackoff 2426
scalar HighwayScenario1.node[5].nic.mac1609_4 NumInternalContention 0
scalar HighwayScenario1.node[5].nic.mac1609_4 totalBusyTime 5.95216
scalar HighwayScenario1.node[5].veinsmobility startTime 11
scalar HighwayScenario1.node[5].veinsmobility totalTime 159
scalar HighwayScenario1.node[5].veinsmobility stopTime 171
scalar HighwayScenario1.node[5].veinsmobility minSpeed 29.713738642236
scalar HighwayScenario1.node[5].veinsmobility maxSpeed 31.928955400918
scalar HighwayScenario1.node[5].veinsmobility totalDistance 4967.8819487356
scalar HighwayScenario1.node[5].veinsmobility totalCO2Emission 900.74029667534
scalar HighwayScenario1.node[3].appl generatedWSMs 0
scalar HighwayScenario1.node[3].appl receivedWSMs 0
scalar HighwayScenario1.node[3].appl generatedBSMs 1640
scalar HighwayScenario1.node[3].appl receivedBSMs 13448
scalar HighwayScenario1.node[3].appl generatedWSAs 0
scalar HighwayScenario1.node[3].appl receivedWSAs 0
scalar HighwayScenario1.node[3].appl delayBSM_P1 0.00042321482747739
scalar HighwayScenario1.node[3].appl delayBSM_P2 0
scalar HighwayScenario1.node[3].nic.phy80211p busyTime 0.032148780487804
scalar HighwayScenario1.node[3].nic.mac1609_4 ReceivedUnicastPackets 0
scalar HighwayScenario1.node[3].nic.mac1609_4 ReceivedBroadcasts 13448
scalar HighwayScenario1.node[3].nic.mac1609_4 SentPackets 1640
scalar HighwayScenario1.node[3].nic.mac1609_4 SNIRLostPackets 2
scalar HighwayScenario1.node[3].nic.mac1609_4 RXTXLostPackets 0
scalar HighwayScenario1.node[3].nic.mac1609_4 TotalLostPackets 2
scalar HighwayScenario1.node[3].nic.mac1609_4 DroppedPacketsInMac 0
scalar HighwayScenario1.node[3].nic.mac1609_4 TooLittleTime 0
scalar HighwayScenario1.node[3].nic.mac1609_4 TimesIntoBackoff 1640
scalar HighwayScenario1.node[3].nic.mac1609_4 SlotsBackoff 2447
scalar HighwayScenario1.node[3].nic.mac1609_4 NumInternalContention 0
scalar HighwayScenario1.node[3].nic.mac1609_4 totalBusyTime 5.91692
scalar HighwayScenario1.node[3].veinsmobility startTime 7
scalar HighwayScenario1.node[3].veinsmobility totalTime 163
scalar HighwayScenario1.node[3].veinsmobility stopTime 171
scalar HighwayScenario1.node[3].veinsmobility minSpeed 29.906596762299
scalar HighwayScenario1.node[3].veinsmobility maxSpeed 31.130142999751
scalar HighwayScenario1.node[3].veinsmobility totalDistance 4976.4571570921
scalar HighwayScenario1.node[3].veinsmobility totalCO2Emission 882.21316772775
scalar HighwayScenario1.node[9].appl generatedWSMs 0
scalar HighwayScenario1.node[9].appl receivedWSMs 0
scalar HighwayScenario1.node[9].appl generatedBSMs 1540
scalar HighwayScenario1.node[9].appl receivedBSMs 13439
scalar HighwayScenario1.node[9].appl generatedWSAs 0
scalar HighwayScenario1.node[9].appl receivedWSAs 0
scalar HighwayScenario1.node[9].appl delayBSM_P1 0.0004293779379241
scalar HighwayScenario1.node[9].appl delayBSM_P2 0
scalar HighwayScenario1.node[9].nic.phy80211p busyTime 0.036578181818179
scalar HighwayScenario1.node[9].nic.mac1609_4 ReceivedUnicastPackets 0
scalar HighwayScenario1.node[9].nic.mac1609_4 ReceivedBroadcasts 13439
scalar HighwayScenario1.node[9].nic.mac1609_4 SentPackets 1540
scalar HighwayScenario1.node[9].nic.mac1609_4 SNIRLostPackets 931
scalar HighwayScenario1.node[9].nic.mac1609_4 RXTXLostPackets 0
scalar HighwayScenario1.node[9].nic.mac1609_4 TotalLostPackets 931
scalar HighwayScenario1.node[9].nic.mac1609_4 DroppedPacketsInMac 0
scalar HighwayScenario1.node[9].nic.mac1609_4 TooLittleTime 0
scalar HighwayScenario1.node[9].nic.mac1609_4 TimesIntoBackoff 1540
scalar HighwayScenario1.node[9].nic.mac1609_4 SlotsBackoff 2329
scalar HighwayScenario1.node[9].nic.mac1609_4 NumInternalContention 0
scalar HighwayScenario1.node[9].nic.mac1609_4 totalBusyTime 6.08146
scalar HighwayScenario1.node[9].veinsmobility startTime 19
scalar HighwayScenario1.node[9].veinsmobility totalTime 153
scalar HighwayScenario1.node[9].veinsmobility stopTime 173
scalar HighwayScenario1.node[9].veinsmobility minSpeed 30.37993461178
scalar HighwayScenario1.node[9].veinsmobility maxSpeed 33.710887097781
scalar HighwayScenario1.node[9].veinsmobility totalDistance 4990.0083315423
scalar HighwayScenario1.node[9].veinsmobility totalCO2Emission 922.49631652614
scalar HighwayScenario1.node[7].appl generatedWSMs 0
scalar HighwayScenario1.node[7].appl receivedWSMs 0
scalar HighwayScenario1.node[7].appl generatedBSMs 1610
scalar HighwayScenario1.node[7].appl receivedBSMs 15797
scalar HighwayScenario1.node[7].appl generatedWSAs 0
scalar HighwayScenario1.node[7].appl receivedWSAs 0
scalar HighwayScenario1.node[7].appl delayBSM_P1 0.00042802227682484
scalar HighwayScenario1.node[7].appl delayBSM_P2 0
scalar HighwayScenario1.node[7].nic.phy80211p busyTime 0.039370434782603
scalar HighwayScenario1.node[7].nic.mac1609_4 ReceivedUnicastPackets 0
scalar HighwayScenario1.node[7].nic.mac1609_4 ReceivedBroadcasts 15797
scalar HighwayScenario1.node[7].nic.mac1609_4 SentPackets 1610
scalar HighwayScenario1.node[7].nic.mac1609_4 SNIRLostPackets 373
scalar HighwayScenario1.node[7].nic.mac1609_4 RXTXLostPackets 0
scalar HighwayScenario1.node[7].nic.mac1609_4 TotalLostPackets 373
scalar HighwayScenario1.node[7].nic.mac1609_4 DroppedPacketsInMac 0
scalar HighwayScenario1.node[7].nic.mac1609_4 TooLittleTime 0
scalar HighwayScenario1.node[7].nic.mac1609_4 TimesIntoBackoff 1610
scalar HighwayScenario1.node[7].nic.mac1609_4 SlotsBackoff 2305
scalar HighwayScenario1.node[7].nic.mac1609_4 NumInternalContention 0
scalar HighwayScenario1.node[7].nic.mac1609_4 totalBusyTime 6.97137
scalar HighwayScenario1.node[7].veinsmobility startTime 15
scalar HighwayScenario1.node[7].veinsmobility totalTime 160
scalar HighwayScenario1.node[7].veinsmobility stopTime 176
scalar HighwayScenario1.node[7].veinsmobility minSpeed 29.911833632346
scalar HighwayScenario1.node[7].veinsmobility maxSpeed 31.799890142991
scalar HighwayScenario1.node[7].veinsmobility totalDistance 4985.1426244425
scalar HighwayScenario1.node[7].veinsmobility totalCO2Emission 884.31136184081
scalar HighwayScenario1.node[4].appl generatedWSMs 0
scalar HighwayScenario1.node[4].appl receivedWSMs 0
scalar HighwayScenario1.node[4].appl generatedBSMs 1670
scalar HighwayScenario1.node[4].appl receivedBSMs 15140
scalar HighwayScenario1.node[4].appl generatedWSAs 0
scalar HighwayScenario1.node[4].appl receivedWSAs 0
scalar HighwayScenario1.node[4].appl delayBSM_P1 0.0004296472543284
scalar HighwayScenario1.node[4].appl delayBSM_P2 0
scalar HighwayScenario1.node[4].nic.phy80211p busyTime 0.03553820359281
scalar HighwayScenario1.node[4].nic.mac1609_4 ReceivedUnicastPackets 0
scalar HighwayScenario1.node[4].nic.mac1609_4 ReceivedBroadcasts 15140
scalar HighwayScenario1.node[4].nic.mac1609_4 SentPackets 1670
scalar HighwayScenario1.node[4].nic.mac1609_4 SNIRLostPackets 0
scalar HighwayScenario1.node[4].nic.mac1609_4 RXTXLostPackets 0
scalar HighwayScenario1.node[4].nic.mac1609_4 TotalLostPackets 0
scalar HighwayScenario1.node[4].nic.mac1609_4 DroppedPacketsInMac 0
scalar HighwayScenario1.node[4].nic.mac1609_4 TooLittleTime 0
scalar HighwayScenario1.node[4].nic.mac1609_4 TimesIntoBackoff 1670
scalar HighwayScenario1.node[4].nic.mac1609_4 SlotsBackoff 2470
scalar HighwayScenario1.node[4].nic.mac1609_4 NumInternalContention 0
scalar HighwayScenario1.node[4].nic.mac1609_4 totalBusyTime 6.59119
scalar HighwayScenario1.node[4].veinsmobility startTime 9
scalar HighwayScenario1.node[4].veinsmobility totalTime 166
scalar HighwayScenario1.node[4].veinsmobility stopTime 176
scalar HighwayScenario1.node[4].veinsmobility minSpeed 28.930550184644
scalar HighwayScenario1.node[4].veinsmobility maxSpeed 30.550408622643
scalar HighwayScenario1.node[4].veinsmobility totalDistance 4964.5907311441
scalar HighwayScenario1.node[4].veinsmobility totalCO2Emission 861.68014215537
scalar HighwayScenario1.node[16].appl generatedWSMs 0
scalar HighwayScenario1.node[16].appl receivedWSMs 0
scalar HighwayScenario1.node[16].appl generatedBSMs 1440
scalar HighwayScenario1.node[16].appl receivedBSMs 15503
scalar HighwayScenario1.node[16].appl generatedWSAs 0
scalar HighwayScenario1.node[16].appl receivedWSAs 0
scalar HighwayScenario1.node[16].appl delayBSM_P1 0.0004295509279195
scalar HighwayScenario1.node[16].appl delayBSM_P2 0
scalar HighwayScenario1.node[16].nic.phy80211p busyTime 0.04603277777777
scalar HighwayScenario1.node[16].nic.mac1609_4 ReceivedUnicastPackets 0
scalar HighwayScenario1.node[16].nic.mac1609_4 ReceivedBroadcasts 15503
scalar HighwayScenario1.node[16].nic.mac1609_4 SentPackets 1440
scalar HighwayScenario1.node[16].nic.mac1609_4 SNIRLostPackets 1407
scalar HighwayScenario1.node[16].nic.mac1609_4 RXTXLostPackets 0
scalar HighwayScenario1.node[16].nic.mac1609_4 TotalLostPackets 1407
scalar HighwayScenario1.node[16].nic.mac1609_4 DroppedPacketsInMac 0
scalar HighwayScenario1.node[16].nic.mac1609_4 TooLittleTime 0
scalar HighwayScenario1.node[16].nic.mac1609_4 TimesIntoBackoff 1440
scalar HighwayScenario1.node[16].nic.mac1609_4 SlotsBackoff 2172
scalar HighwayScenario1.node[16].nic.mac1609_4 NumInternalContention 0
scalar HighwayScenario1.node[16].nic.mac1609_4 totalBusyTime 6.882608
scalar HighwayScenario1.node[16].veinsmobility startTime 33
scalar HighwayScenario1.node[16].veinsmobility totalTime 143
scalar HighwayScenario1.node[16].veinsmobility stopTime 177
scalar HighwayScenario1.node[16].veinsmobility minSpeed 30.415606287603
scalar HighwayScenario1.node[16].veinsmobility maxSpeed 35.786368328478
scalar HighwayScenario1.node[16].veinsmobility totalDistance 4971.7482020769
scalar HighwayScenario1.node[16].veinsmobility totalCO2Emission 939.60771463742
scalar HighwayScenario1.node[12].appl generatedWSMs 0
scalar HighwayScenario1.node[12].appl receivedWSMs 0
scalar HighwayScenario1.node[12].appl generatedBSMs 1530
scalar HighwayScenario1.node[12].appl receivedBSMs 17137
scalar HighwayScenario1.node[12].appl generatedWSAs 0
scalar HighwayScenario1.node[12].appl receivedWSAs 0
scalar HighwayScenario1.node[12].appl delayBSM_P1 0.00042689868798197
scalar HighwayScenario1.node[12].appl delayBSM_P2 0
scalar HighwayScenario1.node[12].nic.phy80211p busyTime 0.049525228758158
scalar HighwayScenario1.node[12].nic.mac1609_4 ReceivedUnicastPackets 0
scalar HighwayScenario1.node[12].nic.mac1609_4 ReceivedBroadcasts 17137
scalar HighwayScenario1.node[12].nic.mac1609_4 SentPackets 1530
scalar HighwayScenario1.node[12].nic.mac1609_4 SNIRLostPackets 2193
scalar HighwayScenario1.node[12].nic.mac1609_4 RXTXLostPackets 0
scalar HighwayScenario1.node[12].nic.mac1609_4 TotalLostPackets 2193
scalar HighwayScenario1.node[12].nic.mac1609_4 DroppedPacketsInMac 0
scalar HighwayScenario1.node[12].nic.mac1609_4 TooLittleTime 0
scalar HighwayScenario1.node[12].nic.mac1609_4 TimesIntoBackoff 1530
scalar HighwayScenario1.node[12].nic.mac1609_4 SlotsBackoff 2226
scalar HighwayScenario1.node[12].nic.mac1609_4 NumInternalContention 0
scalar HighwayScenario1.node[12].nic.mac1609_4 totalBusyTime 7.77097
scalar HighwayScenario1.node[12].veinsmobility startTime 25
scalar HighwayScenario1.node[12].veinsmobility totalTime 152
scalar HighwayScenario1.node[12].veinsmobility stopTime 178
scalar HighwayScenario1.node[12].veinsmobility minSpeed 29.198945132345
scalar HighwayScenario1.node[12].veinsmobility maxSpeed 34.599351722425
scalar HighwayScenario1.node[12].veinsmobility totalDistance 4985.9582867659
scalar HighwayScenario1.node[12].veinsmobility totalCO2Emission 962.62345832956
scalar HighwayScenario1.ambulanceNode[36].appl generatedWSMs 108
scalar HighwayScenario1.ambulanceNode[36].appl receivedWSMs 0
scalar HighwayScenario1.ambulanceNode[36].appl generatedBSMs 0
scalar HighwayScenario1.ambulanceNode[36].appl receivedBSMs 7943
scalar HighwayScenario1.ambulanceNode[36].appl generatedWSAs 0
scalar HighwayScenario1.ambulanceNode[36].appl receivedWSAs 0
scalar HighwayScenario1.ambulanceNode[36].nic.phy80211p busyTime 0.029840356393199
scalar HighwayScenario1.ambulanceNode[36].nic.mac1609_4 ReceivedUnicastPackets 0
scalar HighwayScenario1.ambulanceNode[36].nic.mac1609_4 ReceivedBroadcasts 7943
scalar HighwayScenario1.ambulanceNode[36].nic.mac1609_4 SentPackets 108
scalar HighwayScenario1.ambulanceNode[36].nic.mac1609_4 SNIRLostPackets 282
scalar HighwayScenario1.ambulanceNode[36].nic.mac1609_4 RXTXLostPackets 0
scalar HighwayScenario1.ambulanceNode[36].nic.mac1609_4 TotalLostPackets 282
scalar HighwayScenario1.ambulanceNode[36].nic.mac1609_4 DroppedPacketsInMac 0
scalar HighwayScenario1.ambulanceNode[36].nic.mac1609_4 TooLittleTime 0
scalar HighwayScenario1.ambulanceNode[36].nic.mac1609_4 TimesIntoBackoff 108
scalar HighwayScenario1.ambulanceNode[36].nic.mac1609_4 SlotsBackoff 166
scalar HighwayScenario1.ambulanceNode[36].nic.mac1609_4 NumInternalContention 0
scalar HighwayScenario1.ambulanceNode[36].nic.mac1609_4 totalBusyTime 3.233428
scalar HighwayScenario1.ambulanceNode[36].veinsmobility startTime 72
scalar HighwayScenario1.ambulanceNode[36].veinsmobility totalTime 108
scalar HighwayScenario1.ambulanceNode[36].veinsmobility stopTime 180.04830738332
scalar HighwayScenario1.ambulanceNode[36].veinsmobility minSpeed 28.190659158669
scalar HighwayScenario1.ambulanceNode[36].veinsmobility maxSpeed 49.938699318562
scalar HighwayScenario1.ambulanceNode[36].veinsmobility totalDistance 4604.1118006992
scalar HighwayScenario1.ambulanceNode[36].veinsmobility totalCO2Emission 1632.4853133122
scalar HighwayScenario1.node[10].appl generatedWSMs 0
scalar HighwayScenario1.node[10].appl receivedWSMs 11
scalar HighwayScenario1.node[10].appl generatedBSMs 1590
scalar HighwayScenario1.node[10].appl receivedBSMs 18435
scalar HighwayScenario1.node[10].appl generatedWSAs 0
scalar HighwayScenario1.node[10].appl receivedWSAs 0
scalar HighwayScenario1.node[10].appl delayBSM_P1 0.00041901552818243
scalar HighwayScenario1.node[10].appl delayBSM_P2 0.00052701829472727
scalar HighwayScenario1.node[10].nic.phy80211p busyTime 0.047390180530701
scalar HighwayScenario1.node[10].nic.mac1609_4 ReceivedUnicastPackets 0
scalar HighwayScenario1.node[10].nic.mac1609_4 ReceivedBroadcasts 18446
scalar HighwayScenario1.node[10].nic.mac1609_4 SentPackets 1590
scalar HighwayScenario1.node[10].nic.mac1609_4 SNIRLostPackets 776
scalar HighwayScenario1.node[10].nic.mac1609_4 RXTXLostPackets 0
scalar HighwayScenario1.node[10].nic.mac1609_4 TotalLostPackets 776
scalar HighwayScenario1.node[10].nic.mac1609_4 DroppedPacketsInMac 0
scalar HighwayScenario1.node[10].nic.mac1609_4 TooLittleTime 0
scalar HighwayScenario1.node[10].nic.mac1609_4 TimesIntoBackoff 3030
scalar HighwayScenario1.node[10].nic.mac1609_4 SlotsBackoff 4466
scalar HighwayScenario1.node[10].nic.mac1609_4 NumInternalContention 0
scalar HighwayScenario1.node[10].nic.mac1609_4 totalBusyTime 8.032838
scalar HighwayScenario1.node[10].veinsmobility startTime 21
scalar HighwayScenario1.node[10].veinsmobility totalTime 159
scalar HighwayScenario1.node[10].veinsmobility stopTime 180.04830738332
scalar HighwayScenario1.node[10].veinsmobility minSpeed 28.740059746977
scalar HighwayScenario1.node[10].veinsmobility maxSpeed 30.298711198061
scalar HighwayScenario1.node[10].veinsmobility totalDistance 4719.1696539355
scalar HighwayScenario1.node[10].veinsmobility totalCO2Emission 804.80276346843
scalar HighwayScenario1.node[11].appl generatedWSMs 0
scalar HighwayScenario1.node[11].appl receivedWSMs 14
scalar HighwayScenario1.node[11].appl generatedBSMs 1571
scalar HighwayScenario1.node[11].appl receivedBSMs 16101
scalar HighwayScenario1.node[11].appl generatedWSAs 0
scalar HighwayScenario1.node[11].appl receivedWSAs 0
scalar HighwayScenario1.node[11].appl delayBSM_P1 0.0004289966322675
scalar HighwayScenario1.node[11].appl delayBSM_P2 0.00052762638078571
scalar HighwayScenario1.node[11].nic.phy80211p busyTime 0.0425065135131
scalar HighwayScenario1.node[11].nic.mac1609_4 ReceivedUnicastPackets 0
scalar HighwayScenario1.node[11].nic.mac1609_4 ReceivedBroadcasts 16115
scalar HighwayScenario1.node[11].nic.mac1609_4 SentPackets 1571
scalar HighwayScenario1.node[11].nic.mac1609_4 SNIRLostPackets 908
scalar HighwayScenario1.node[11].nic.mac1609_4 RXTXLostPackets 0
scalar HighwayScenario1.node[11].nic.mac1609_4 TotalLostPackets 908
scalar HighwayScenario1.node[11].nic.mac1609_4 DroppedPacketsInMac 0
scalar HighwayScenario1.node[11].nic.mac1609_4 TooLittleTime 0
scalar HighwayScenario1.node[11].nic.mac1609_4 TimesIntoBackoff 1571
scalar HighwayScenario1.node[11].nic.mac1609_4 SlotsBackoff 2440
scalar HighwayScenario1.node[11].nic.mac1609_4 NumInternalContention 0
scalar HighwayScenario1.node[11].nic.mac1609_4 totalBusyTime 7.116579
scalar HighwayScenario1.node[11].veinsmobility startTime 23
scalar HighwayScenario1.node[11].veinsmobility totalTime 157
scalar HighwayScenario1.node[11].veinsmobility stopTime 180.04830738332
scalar HighwayScenario1.node[11].veinsmobility minSpeed 28.606829378782
scalar HighwayScenario1.node[11].veinsmobility maxSpeed 30.639867577736
scalar HighwayScenario1.node[11].veinsmobility totalDistance 4678.9313452904
scalar HighwayScenario1.node[11].veinsmobility totalCO2Emission 838.58989067667
scalar HighwayScenario1.node[13].appl generatedWSMs 0
scalar HighwayScenario1.node[13].appl receivedWSMs 7
scalar HighwayScenario1.node[13].appl generatedBSMs 1530
scalar HighwayScenario1.node[13].appl receivedBSMs 16124
scalar HighwayScenario1.node[13].appl generatedWSAs 0
scalar HighwayScenario1.node[13].appl receivedWSAs 0
scalar HighwayScenario1.node[13].appl delayBSM_P1 0.00042871866051836
scalar HighwayScenario1.node[13].appl delayBSM_P2 0.00052875818957143
scalar HighwayScenario1.node[13].nic.phy80211p busyTime 0.043913768893671
scalar HighwayScenario1.node[13].nic.mac1609_4 ReceivedUnicastPackets 0
scalar HighwayScenario1.node[13].nic.mac1609_4 ReceivedBroadcasts 16131
scalar HighwayScenario1.node[13].nic.mac1609_4 SentPackets 1530
scalar HighwayScenario1.node[13].nic.mac1609_4 SNIRLostPackets 1009
scalar HighwayScenario1.node[13].nic.mac1609_4 RXTXLostPackets 0
scalar HighwayScenario1.node[13].nic.mac1609_4 TotalLostPackets 1009
scalar HighwayScenario1.node[13].nic.mac1609_4 DroppedPacketsInMac 0
scalar HighwayScenario1.node[13].nic.mac1609_4 TooLittleTime 0
scalar HighwayScenario1.node[13].nic.mac1609_4 TimesIntoBackoff 1580
scalar HighwayScenario1.node[13].nic.mac1609_4 SlotsBackoff 2340
scalar HighwayScenario1.node[13].nic.mac1609_4 NumInternalContention 0
scalar HighwayScenario1.node[13].nic.mac1609_4 totalBusyTime 7.126218
scalar HighwayScenario1.node[13].veinsmobility startTime 27
scalar HighwayScenario1.node[13].veinsmobility totalTime 153
scalar HighwayScenario1.node[13].veinsmobility stopTime 180.04830738332
scalar HighwayScenario1.node[13].veinsmobility minSpeed 28.32464243223
scalar HighwayScenario1.node[13].veinsmobility maxSpeed 32.133856886756
scalar HighwayScenario1.node[13].veinsmobility totalDistance 4790.7500977815
scalar HighwayScenario1.node[13].veinsmobility totalCO2Emission 884.7162252076
scalar HighwayScenario1.node[14].appl generatedWSMs 0
scalar HighwayScenario1.node[14].appl receivedWSMs 17
scalar HighwayScenario1.node[14].appl generatedBSMs 1510
scalar HighwayScenario1.node[14].appl receivedBSMs 13794
scalar HighwayScenario1.node[14].appl generatedWSAs 0
scalar HighwayScenario1.node[14].appl receivedWSAs 0
scalar HighwayScenario1.node[14].appl delayBSM_P1 0.00043381444666311
scalar HighwayScenario1.node[14].appl delayBSM_P2 0.00052845246464706
scalar HighwayScenario1.node[14].nic.phy80211p busyTime 0.038575473641108
scalar HighwayScenario1.node[14].nic.mac1609_4 ReceivedUnicastPackets 0
scalar HighwayScenario1.node[14].nic.mac1609_4 ReceivedBroadcasts 13811
scalar HighwayScenario1.node[14].nic.mac1609_4 SentPackets 1510
scalar HighwayScenario1.node[14].nic.mac1609_4 SNIRLostPackets 1046
scalar HighwayScenario1.node[14].nic.mac1609_4 RXTXLostPackets 0
scalar HighwayScenario1.node[14].nic.mac1609_4 TotalLostPackets 1046
scalar HighwayScenario1.node[14].nic.mac1609_4 DroppedPacketsInMac 0
scalar HighwayScenario1.node[14].nic.mac1609_4 TooLittleTime 0
scalar HighwayScenario1.node[14].nic.mac1609_4 TimesIntoBackoff 1510
scalar HighwayScenario1.node[14].nic.mac1609_4 SlotsBackoff 2261
scalar HighwayScenario1.node[14].nic.mac1609_4 NumInternalContention 0
scalar HighwayScenario1.node[14].nic.mac1609_4 totalBusyTime 6.180286
scalar HighwayScenario1.node[14].veinsmobility startTime 29
scalar HighwayScenario1.node[14].veinsmobility totalTime 151
scalar HighwayScenario1.node[14].veinsmobility stopTime 180.04830738332
scalar HighwayScenario1.node[14].veinsmobility minSpeed 0.45598578461867
scalar HighwayScenario1.node[14].veinsmobility maxSpeed 32.036993257076
scalar HighwayScenario1.node[14].veinsmobility totalDistance 4544.6870748347
scalar HighwayScenario1.node[14].veinsmobility totalCO2Emission 867.94425514187
scalar HighwayScenario1.node[15].appl generatedWSMs 0
scalar HighwayScenario1.node[15].appl receivedWSMs 17
scalar HighwayScenario1.node[15].appl generatedBSMs 1491
scalar HighwayScenario1.node[15].appl receivedBSMs 13485
scalar HighwayScenario1.node[15].appl generatedWSAs 0
scalar HighwayScenario1.node[15].appl receivedWSAs 0
scalar HighwayScenario1.node[15].appl delayBSM_P1 0.00043468349810093
scalar HighwayScenario1.node[15].appl delayBSM_P2 0.00052847529970588
scalar HighwayScenario1.node[15].nic.phy80211p busyTime 0.037598333710608
scalar HighwayScenario1.node[15].nic.mac1609_4 ReceivedUnicastPackets 0
scalar HighwayScenario1.node[15].nic.mac1609_4 ReceivedBroadcasts 13502
scalar HighwayScenario1.node[15].nic.mac1609_4 SentPackets 1491
scalar HighwayScenario1.node[15].nic.mac1609_4 SNIRLostPackets 786
scalar HighwayScenario1.node[15].nic.mac1609_4 RXTXLostPackets 0
scalar HighwayScenario1.node[15].nic.mac1609_4 TotalLostPackets 786
scalar HighwayScenario1.node[15].nic.mac1609_4 DroppedPacketsInMac 0
scalar HighwayScenario1.node[15].nic.mac1609_4 TooLittleTime 0
scalar HighwayScenario1.node[15].nic.mac1609_4 TimesIntoBackoff 1491
scalar HighwayScenario1.node[15].nic.mac1609_4 SlotsBackoff 2253
scalar HighwayScenario1.node[15].nic.mac1609_4 NumInternalContention 0
scalar HighwayScenario1.node[15].nic.mac1609_4 totalBusyTime 5.963747
scalar HighwayScenario1.node[15].veinsmobility startTime 31
scalar HighwayScenario1.node[15].veinsmobility totalTime 149
scalar HighwayScenario1.node[15].veinsmobility stopTime 180.04830738332
scalar HighwayScenario1.node[15].veinsmobility minSpeed 3.9510373345106
scalar HighwayScenario1.node[15].veinsmobility maxSpeed 32.236885038166
scalar HighwayScenario1.node[15].veinsmobility totalDistance 4593.989314041
scalar HighwayScenario1.node[15].veinsmobility totalCO2Emission 832.75276383624
scalar HighwayScenario1.node[17].appl generatedWSMs 0
scalar HighwayScenario1.node[17].appl receivedWSMs 8
scalar HighwayScenario1.node[17].appl generatedBSMs 1450
scalar HighwayScenario1.node[17].appl receivedBSMs 14324
scalar HighwayScenario1.node[17].appl generatedWSAs 0
scalar HighwayScenario1.node[17].appl receivedWSAs 0
scalar HighwayScenario1.node[17].appl delayBSM_P1 0.00043228390422256
scalar HighwayScenario1.node[17].appl delayBSM_P2 0.000527974197625
scalar HighwayScenario1.node[17].nic.phy80211p busyTime 0.040833347915925
scalar HighwayScenario1.node[17].nic.mac1609_4 ReceivedUnicastPackets 0
scalar HighwayScenario1.node[17].nic.mac1609_4 ReceivedBroadcasts 14332
scalar HighwayScenario1.node[17].nic.mac1609_4 SentPackets 1450
scalar HighwayScenario1.node[17].nic.mac1609_4 SNIRLostPackets 771
scalar HighwayScenario1.node[17].nic.mac1609_4 RXTXLostPackets 0
scalar HighwayScenario1.node[17].nic.mac1609_4 TotalLostPackets 771
scalar HighwayScenario1.node[17].nic.mac1609_4 DroppedPacketsInMac 0
scalar HighwayScenario1.node[17].nic.mac1609_4 TooLittleTime 0
scalar HighwayScenario1.node[17].nic.mac1609_4 TimesIntoBackoff 1450
scalar HighwayScenario1.node[17].nic.mac1609_4 SlotsBackoff 2178
scalar HighwayScenario1.node[17].nic.mac1609_4 NumInternalContention 0
scalar HighwayScenario1.node[17].nic.mac1609_4 totalBusyTime 6.357418
scalar HighwayScenario1.node[17].veinsmobility startTime 35
scalar HighwayScenario1.node[17].veinsmobility totalTime 145
scalar HighwayScenario1.node[17].veinsmobility stopTime 180.04830738332
scalar HighwayScenario1.node[17].veinsmobility minSpeed 30.315159037981
scalar HighwayScenario1.node[17].veinsmobility maxSpeed 34.490047262826
scalar HighwayScenario1.node[17].veinsmobility totalDistance 4792.2454614495
scalar HighwayScenario1.node[17].veinsmobility totalCO2Emission 914.3466140788
scalar HighwayScenario1.node[18].appl generatedWSMs 0
scalar HighwayScenario1.node[18].appl receivedWSMs 12
scalar HighwayScenario1.node[18].appl generatedBSMs 1431
scalar HighwayScenario1.node[18].appl receivedBSMs 13939
scalar HighwayScenario1.node[18].appl generatedWSAs 0
scalar HighwayScenario1.node[18].appl receivedWSAs 0
scalar HighwayScenario1.node[18].appl delayBSM_P1 0.00043236604554028
scalar HighwayScenario1.node[18].appl delayBSM_P2 0.00052766776316667
scalar HighwayScenario1.node[18].nic.phy80211p busyTime 0.040257840902428
scalar HighwayScenario1.node[18].nic.mac1609_4 ReceivedUnicastPackets 0
scalar HighwayScenario1.node[18].nic.mac1609_4 ReceivedBroadcasts 13951
scalar HighwayScenario1.node[18].nic.mac1609_4 SentPackets 1431
scalar HighwayScenario1.node[18].nic.mac1609_4 SNIRLostPackets 733
scalar HighwayScenario1.node[18].nic.mac1609_4 RXTXLostPackets 0
scalar HighwayScenario1.node[18].nic.mac1609_4 TotalLostPackets 733
scalar HighwayScenario1.node[18].nic.mac1609_4 DroppedPacketsInMac 0
scalar HighwayScenario1.node[18].nic.mac1609_4 TooLittleTime 0
scalar HighwayScenario1.node[18].nic.mac1609_4 TimesIntoBackoff 1431
scalar HighwayScenario1.node[18].nic.mac1609_4 SlotsBackoff 2190
scalar HighwayScenario1.node[18].nic.mac1609_4 NumInternalContention 0
scalar HighwayScenario1.node[18].nic.mac1609_4 totalBusyTime 6.212223
scalar HighwayScenario1.node[18].veinsmobility startTime 37
scalar HighwayScenario1.node[18].veinsmobility totalTime 143
scalar HighwayScenario1.node[18].veinsmobility stopTime 180.04830738332
scalar HighwayScenario1.node[18].veinsmobility minSpeed 30.265674523564
scalar HighwayScenario1.node[18].veinsmobility maxSpeed 34.880321350713
scalar HighwayScenario1.node[18].veinsmobility totalDistance 4748.1232210456
scalar HighwayScenario1.node[18].veinsmobility totalCO2Emission 942.11101563645
scalar HighwayScenario1.node[19].appl generatedWSMs 0
scalar HighwayScenario1.node[19].appl receivedWSMs 36
scalar HighwayScenario1.node[19].appl generatedBSMs 1410
scalar HighwayScenario1.node[19].appl receivedBSMs 13737
scalar HighwayScenario1.node[19].appl generatedWSAs 0
scalar HighwayScenario1.node[19].appl receivedWSAs 0
scalar HighwayScenario1.node[19].appl delayBSM_P1 0.00040124951494118
scalar HighwayScenario1.node[19].appl delayBSM_P2 0.0005269672835
scalar HighwayScenario1.node[19].nic.phy80211p busyTime 0.039399891449223
scalar HighwayScenario1.node[19].nic.mac1609_4 ReceivedUnicastPackets 0
scalar HighwayScenario1.node[19].nic.mac1609_4 ReceivedBroadcasts 13773
scalar HighwayScenario1.node[19].nic.mac1609_4 SentPackets 1410
scalar HighwayScenario1.node[19].nic.mac1609_4 SNIRLostPackets 392
scalar HighwayScenario1.node[19].nic.mac1609_4 RXTXLostPackets 0
scalar HighwayScenario1.node[19].nic.mac1609_4 TotalLostPackets 392
scalar HighwayScenario1.node[19].nic.mac1609_4 DroppedPacketsInMac 0
scalar HighwayScenario1.node[19].nic.mac1609_4 TooLittleTime 0
scalar HighwayScenario1.node[19].nic.mac1609_4 TimesIntoBackoff 1410
scalar HighwayScenario1.node[19].nic.mac1609_4 SlotsBackoff 2130
scalar HighwayScenario1.node[19].nic.mac1609_4 NumInternalContention 0
scalar HighwayScenario1.node[19].nic.mac1609_4 totalBusyTime 6.060066
scalar HighwayScenario1.node[19].veinsmobility startTime 39
scalar HighwayScenario1.node[19].veinsmobility totalTime 141
scalar HighwayScenario1.node[19].veinsmobility stopTime 180.04830738332
scalar HighwayScenario1.node[19].veinsmobility minSpeed 0
scalar HighwayScenario1.node[19].veinsmobility maxSpeed 27.554096394501
scalar HighwayScenario1.node[19].veinsmobility totalDistance 2494.4933142431
scalar HighwayScenario1.node[19].veinsmobility totalCO2Emission 476.8150388867
scalar HighwayScenario1.node[20].appl generatedWSMs 0
scalar HighwayScenario1.node[20].appl receivedWSMs 28
scalar HighwayScenario1.node[20].appl generatedBSMs 1391
scalar HighwayScenario1.node[20].appl receivedBSMs 12787
scalar HighwayScenario1.node[20].appl generatedWSAs 0
scalar HighwayScenario1.node[20].appl receivedWSAs 0
scalar HighwayScenario1.node[20].appl delayBSM_P1 0.00040853572691421
scalar HighwayScenario1.node[20].appl delayBSM_P2 0.00052880385978571
scalar HighwayScenario1.node[20].nic.phy80211p busyTime 0.038262040726127
scalar HighwayScenario1.node[20].nic.mac1609_4 ReceivedUnicastPackets 0
scalar HighwayScenario1.node[20].nic.mac1609_4 ReceivedBroadcasts 12815
scalar HighwayScenario1.node[20].nic.mac1609_4 SentPackets 1391
scalar HighwayScenario1.node[20].nic.mac1609_4 SNIRLostPackets 747
scalar HighwayScenario1.node[20].nic.mac1609_4 RXTXLostPackets 0
scalar HighwayScenario1.node[20].nic.mac1609_4 TotalLostPackets 747
scalar HighwayScenario1.node[20].nic.mac1609_4 DroppedPacketsInMac 0
scalar HighwayScenario1.node[20].nic.mac1609_4 TooLittleTime 0
scalar HighwayScenario1.node[20].nic.mac1609_4 TimesIntoBackoff 1391
scalar HighwayScenario1.node[20].nic.mac1609_4 SlotsBackoff 2208
scalar HighwayScenario1.node[20].nic.mac1609_4 NumInternalContention 0
scalar HighwayScenario1.node[20].nic.mac1609_4 totalBusyTime 5.746591
scalar HighwayScenario1.node[20].veinsmobility startTime 41
scalar HighwayScenario1.node[20].veinsmobility totalTime 139
scalar HighwayScenario1.node[20].veinsmobility stopTime 180.04830738332
scalar HighwayScenario1.node[20].veinsmobility minSpeed 0
scalar HighwayScenario1.node[20].veinsmobility maxSpeed 33.506511756428
scalar HighwayScenario1.node[20].veinsmobility totalDistance 4268.5897440764
scalar HighwayScenario1.node[20].veinsmobility totalCO2Emission 788.81424766917
scalar HighwayScenario1.node[21].appl generatedWSMs 0
scalar HighwayScenario1.node[21].appl receivedWSMs 45
scalar HighwayScenario1.node[21].appl generatedBSMs 1370
scalar HighwayScenario1.node[21].appl receivedBSMs 9361
scalar HighwayScenario1.node[21].appl generatedWSAs 0
scalar HighwayScenario1.node[21].appl receivedWSAs 0
scalar HighwayScenario1.node[21].appl delayBSM_P1 0.00040030573961585
scalar HighwayScenario1.node[21].appl delayBSM_P2 0.00052713912888889
scalar HighwayScenario1.node[21].nic.phy80211p busyTime 0.027106237726892
scalar HighwayScenario1.node[21].nic.mac1609_4 ReceivedUnicastPackets 0
scalar HighwayScenario1.node[21].nic.mac1609_4 ReceivedBroadcasts 9406
scalar HighwayScenario1.node[21].nic.mac1609_4 SentPackets 1370
scalar HighwayScenario1.node[21].nic.mac1609_4 SNIRLostPackets 56
scalar HighwayScenario1.node[21].nic.mac1609_4 RXTXLostPackets 0
scalar HighwayScenario1.node[21].nic.mac1609_4 TotalLostPackets 56
scalar HighwayScenario1.node[21].nic.mac1609_4 DroppedPacketsInMac 0
scalar HighwayScenario1.node[21].nic.mac1609_4 TooLittleTime 0
scalar HighwayScenario1.node[21].nic.mac1609_4 TimesIntoBackoff 1370
scalar HighwayScenario1.node[21].nic.mac1609_4 SlotsBackoff 2006
scalar HighwayScenario1.node[21].nic.mac1609_4 NumInternalContention 0
scalar HighwayScenario1.node[21].nic.mac1609_4 totalBusyTime 4.253274
scalar HighwayScenario1.node[21].veinsmobility startTime 43
scalar HighwayScenario1.node[21].veinsmobility totalTime 137
scalar HighwayScenario1.node[21].veinsmobility stopTime 180.04830738332
scalar HighwayScenario1.node[21].veinsmobility minSpeed 0
scalar HighwayScenario1.node[21].veinsmobility maxSpeed 30.476052781668
scalar HighwayScenario1.node[21].veinsmobility totalDistance 3100.0011623176
scalar HighwayScenario1.node[21].veinsmobility totalCO2Emission 569.25291473192
scalar HighwayScenario1.node[22].appl generatedWSMs 0
scalar HighwayScenario1.node[22].appl receivedWSMs 45
scalar HighwayScenario1.node[22].appl generatedBSMs 1351
scalar HighwayScenario1.node[22].appl receivedBSMs 9531
scalar HighwayScenario1.node[22].appl generatedWSAs 0
scalar HighwayScenario1.node[22].appl receivedWSAs 0
scalar HighwayScenario1.node[22].appl delayBSM_P1 0.00040450205888711
scalar HighwayScenario1.node[22].appl delayBSM_P2 0.00052707989442222
scalar HighwayScenario1.node[22].nic.phy80211p busyTime 0.027998218365434
scalar HighwayScenario1.node[22].nic.mac1609_4 ReceivedUnicastPackets 0
scalar HighwayScenario1.node[22].nic.mac1609_4 ReceivedBroadcasts 9576
scalar HighwayScenario1.node[22].nic.mac1609_4 SentPackets 1351
scalar HighwayScenario1.node[22].nic.mac1609_4 SNIRLostPackets 55
scalar HighwayScenario1.node[22].nic.mac1609_4 RXTXLostPackets 0
scalar HighwayScenario1.node[22].nic.mac1609_4 TotalLostPackets 55
scalar HighwayScenario1.node[22].nic.mac1609_4 DroppedPacketsInMac 0
scalar HighwayScenario1.node[22].nic.mac1609_4 TooLittleTime 0
scalar HighwayScenario1.node[22].nic.mac1609_4 TimesIntoBackoff 1351
scalar HighwayScenario1.node[22].nic.mac1609_4 SlotsBackoff 2009
scalar HighwayScenario1.node[22].nic.mac1609_4 NumInternalContention 0
scalar HighwayScenario1.node[22].nic.mac1609_4 totalBusyTime 4.312055
scalar HighwayScenario1.node[22].veinsmobility startTime 45
scalar HighwayScenario1.node[22].veinsmobility totalTime 135
scalar HighwayScenario1.node[22].veinsmobility stopTime 180.04830738332
scalar HighwayScenario1.node[22].veinsmobility minSpeed 0
scalar HighwayScenario1.node[22].veinsmobility maxSpeed 31.133692542322
scalar HighwayScenario1.node[22].veinsmobility totalDistance 3064.2199483106
scalar HighwayScenario1.node[22].veinsmobility totalCO2Emission 584.59169660389
scalar HighwayScenario1.node[23].appl generatedWSMs 0
scalar HighwayScenario1.node[23].appl receivedWSMs 42
scalar HighwayScenario1.node[23].appl generatedBSMs 1330
scalar HighwayScenario1.node[23].appl receivedBSMs 10901
scalar HighwayScenario1.node[23].appl generatedWSAs 0
scalar HighwayScenario1.node[23].appl receivedWSAs 0
scalar HighwayScenario1.node[23].appl delayBSM_P1 0.00040532226865636
scalar HighwayScenario1.node[23].appl delayBSM_P2 0.00052714734407143
scalar HighwayScenario1.node[23].nic.phy80211p busyTime 0.032302372608305
scalar HighwayScenario1.node[23].nic.mac1609_4 ReceivedUnicastPackets 0
scalar HighwayScenario1.node[23].nic.mac1609_4 ReceivedBroadcasts 10943
scalar HighwayScenario1.node[23].nic.mac1609_4 SentPackets 1330
scalar HighwayScenario1.node[23].nic.mac1609_4 SNIRLostPackets 7
scalar HighwayScenario1.node[23].nic.mac1609_4 RXTXLostPackets 0
scalar HighwayScenario1.node[23].nic.mac1609_4 TotalLostPackets 7
scalar HighwayScenario1.node[23].nic.mac1609_4 DroppedPacketsInMac 0
scalar HighwayScenario1.node[23].nic.mac1609_4 TooLittleTime 0
scalar HighwayScenario1.node[23].nic.mac1609_4 TimesIntoBackoff 1330
scalar HighwayScenario1.node[23].nic.mac1609_4 SlotsBackoff 1979
scalar HighwayScenario1.node[23].nic.mac1609_4 NumInternalContention 0
scalar HighwayScenario1.node[23].nic.mac1609_4 totalBusyTime 4.820466
scalar HighwayScenario1.node[23].veinsmobility startTime 47
scalar HighwayScenario1.node[23].veinsmobility totalTime 133
scalar HighwayScenario1.node[23].veinsmobility stopTime 180.04830738332
scalar HighwayScenario1.node[23].veinsmobility minSpeed 0
scalar HighwayScenario1.node[23].veinsmobility maxSpeed 32.313281879308
scalar HighwayScenario1.node[23].veinsmobility totalDistance 2792.9173661383
scalar HighwayScenario1.node[23].veinsmobility totalCO2Emission 648.56454816217
scalar HighwayScenario1.node[24].appl generatedWSMs 0
scalar HighwayScenario1.node[24].appl receivedWSMs 34
scalar HighwayScenario1.node[24].appl generatedBSMs 1311
scalar HighwayScenario1.node[24].appl receivedBSMs 13805
scalar HighwayScenario1.node[24].appl generatedWSAs 0
scalar HighwayScenario1.node[24].appl receivedWSAs 0
scalar HighwayScenario1.node[24].appl delayBSM_P1 0.0004041520582226
scalar HighwayScenario1.node[24].appl delayBSM_P2 0.00052631671279412
scalar HighwayScenario1.node[24].nic.phy80211p busyTime 0.043113384009403
scalar HighwayScenario1.node[24].nic.mac1609_4 ReceivedUnicastPackets 0
scalar HighwayScenario1.node[24].nic.mac1609_4 ReceivedBroadcasts 13839
scalar HighwayScenario1.node[24].nic.mac1609_4 SentPackets 1311
scalar HighwayScenario1.node[24].nic.mac1609_4 SNIRLostPackets 562
scalar HighwayScenario1.node[24].nic.mac1609_4 RXTXLostPackets 0
scalar HighwayScenario1.node[24].nic.mac1609_4 TotalLostPackets 562
scalar HighwayScenario1.node[24].nic.mac1609_4 DroppedPacketsInMac 0
scalar HighwayScenario1.node[24].nic.mac1609_4 TooLittleTime 0
scalar HighwayScenario1.node[24].nic.mac1609_4 TimesIntoBackoff 1311
scalar HighwayScenario1.node[24].nic.mac1609_4 SlotsBackoff 1992
scalar HighwayScenario1.node[24].nic.mac1609_4 NumInternalContention 0
scalar HighwayScenario1.node[24].nic.mac1609_4 totalBusyTime 6.08117986272
scalar HighwayScenario1.node[24].veinsmobility startTime 49
scalar HighwayScenario1.node[24].veinsmobility totalTime 131
scalar HighwayScenario1.node[24].veinsmobility stopTime 180.04830738332
scalar HighwayScenario1.node[24].veinsmobility minSpeed 0
scalar HighwayScenario1.node[24].veinsmobility maxSpeed 30.246936229586
scalar HighwayScenario1.node[24].veinsmobility totalDistance 2244.0453276306
scalar HighwayScenario1.node[24].veinsmobility totalCO2Emission 441.7627823301
scalar HighwayScenario1.node[25].appl generatedWSMs 0
scalar HighwayScenario1.node[25].appl receivedWSMs 38
scalar HighwayScenario1.node[25].appl generatedBSMs 1290
scalar HighwayScenario1.node[25].appl receivedBSMs 13471
scalar HighwayScenario1.node[25].appl generatedWSAs 0
scalar HighwayScenario1.node[25].appl receivedWSAs 0
scalar HighwayScenario1.node[25].appl delayBSM_P1 0.00040427539111543
scalar HighwayScenario1.node[25].appl delayBSM_P2 0.00052644571239474
scalar HighwayScenario1.node[25].nic.phy80211p busyTime 0.042552251256487
scalar HighwayScenario1.node[25].nic.mac1609_4 ReceivedUnicastPackets 0
scalar HighwayScenario1.node[25].nic.mac1609_4 ReceivedBroadcasts 13509
scalar HighwayScenario1.node[25].nic.mac1609_4 SentPackets 1290
scalar HighwayScenario1.node[25].nic.mac1609_4 SNIRLostPackets 487
scalar HighwayScenario1.node[25].nic.mac1609_4 RXTXLostPackets 0
scalar HighwayScenario1.node[25].nic.mac1609_4 TotalLostPackets 487
scalar HighwayScenario1.node[25].nic.mac1609_4 DroppedPacketsInMac 0
scalar HighwayScenario1.node[25].nic.mac1609_4 TooLittleTime 0
scalar HighwayScenario1.node[25].nic.mac1609_4 TimesIntoBackoff 1290
scalar HighwayScenario1.node[25].nic.mac1609_4 SlotsBackoff 1901
scalar HighwayScenario1.node[25].nic.mac1609_4 NumInternalContention 0
scalar HighwayScenario1.node[25].nic.mac1609_4 totalBusyTime 5.927622965799
scalar HighwayScenario1.node[25].veinsmobility startTime 51
scalar HighwayScenario1.node[25].veinsmobility totalTime 129
scalar HighwayScenario1.node[25].veinsmobility stopTime 180.04830738332
scalar HighwayScenario1.node[25].veinsmobility minSpeed 0
scalar HighwayScenario1.node[25].veinsmobility maxSpeed 31.511542353748
scalar HighwayScenario1.node[25].veinsmobility totalDistance 2358.559169579
scalar HighwayScenario1.node[25].veinsmobility totalCO2Emission 465.6872175717
scalar HighwayScenario1.node[26].appl generatedWSMs 0
scalar HighwayScenario1.node[26].appl receivedWSMs 35
scalar HighwayScenario1.node[26].appl generatedBSMs 1271
scalar HighwayScenario1.node[26].appl receivedBSMs 14124
scalar HighwayScenario1.node[26].appl generatedWSAs 0
scalar HighwayScenario1.node[26].appl receivedWSAs 0
scalar HighwayScenario1.node[26].appl delayBSM_P1 0.00040411383403009
scalar HighwayScenario1.node[26].appl delayBSM_P2 0.00052626732351429
scalar HighwayScenario1.node[26].nic.phy80211p busyTime 0.045958959393156
scalar HighwayScenario1.node[26].nic.mac1609_4 ReceivedUnicastPackets 0
scalar HighwayScenario1.node[26].nic.mac1609_4 ReceivedBroadcasts 14159
scalar HighwayScenario1.node[26].nic.mac1609_4 SentPackets 1271
scalar HighwayScenario1.node[26].nic.mac1609_4 SNIRLostPackets 724
scalar HighwayScenario1.node[26].nic.mac1609_4 RXTXLostPackets 0
scalar HighwayScenario1.node[26].nic.mac1609_4 TotalLostPackets 724
scalar HighwayScenario1.node[26].nic.mac1609_4 DroppedPacketsInMac 0
scalar HighwayScenario1.node[26].nic.mac1609_4 TooLittleTime 0
scalar HighwayScenario1.node[26].nic.mac1609_4 TimesIntoBackoff 1271
scalar HighwayScenario1.node[26].nic.mac1609_4 SlotsBackoff 1933
scalar HighwayScenario1.node[26].nic.mac1609_4 NumInternalContention 0
scalar HighwayScenario1.node[26].nic.mac1609_4 totalBusyTime 6.2350035743
scalar HighwayScenario1.node[26].veinsmobility startTime 53
scalar HighwayScenario1.node[26].veinsmobility totalTime 127
scalar HighwayScenario1.node[26].veinsmobility stopTime 180.04830738332
scalar HighwayScenario1.node[26].veinsmobility minSpeed 0
scalar HighwayScenario1.node[26].veinsmobility maxSpeed 32.664085859891
scalar HighwayScenario1.node[26].veinsmobility totalDistance 2105.3577176317
scalar HighwayScenario1.node[26].veinsmobility totalCO2Emission 509.25001902212
scalar HighwayScenario1.node[27].appl generatedWSMs 0
scalar HighwayScenario1.node[27].appl receivedWSMs 37
scalar HighwayScenario1.node[27].appl generatedBSMs 1250
scalar HighwayScenario1.node[27].appl receivedBSMs 14096
scalar HighwayScenario1.node[27].appl generatedWSAs 0
scalar HighwayScenario1.node[27].appl receivedWSAs 0
scalar HighwayScenario1.node[27].appl delayBSM_P1 0.00040407724481285
scalar HighwayScenario1.node[27].appl delayBSM_P2 0.00052616254556757
scalar HighwayScenario1.node[27].nic.phy80211p busyTime 0.046454687164955
scalar HighwayScenario1.node[27].nic.mac1609_4 ReceivedUnicastPackets 0
scalar HighwayScenario1.node[27].nic.mac1609_4 ReceivedBroadcasts 14133
scalar HighwayScenario1.node[27].nic.mac1609_4 SentPackets 1250
scalar HighwayScenario1.node[27].nic.mac1609_4 SNIRLostPackets 673
scalar HighwayScenario1.node[27].nic.mac1609_4 RXTXLostPackets 0
scalar HighwayScenario1.node[27].nic.mac1609_4 TotalLostPackets 673
scalar HighwayScenario1.node[27].nic.mac1609_4 DroppedPacketsInMac 0
scalar HighwayScenario1.node[27].nic.mac1609_4 TooLittleTime 0
scalar HighwayScenario1.node[27].nic.mac1609_4 TimesIntoBackoff 1250
scalar HighwayScenario1.node[27].nic.mac1609_4 SlotsBackoff 1799
scalar HighwayScenario1.node[27].nic.mac1609_4 NumInternalContention 0
scalar HighwayScenario1.node[27].nic.mac1609_4 totalBusyTime 6.20460987318
scalar HighwayScenario1.node[27].veinsmobility startTime 55
scalar HighwayScenario1.node[27].veinsmobility totalTime 125
scalar HighwayScenario1.node[27].veinsmobility stopTime 180.04830738332
scalar HighwayScenario1.node[27].veinsmobility minSpeed 0
scalar HighwayScenario1.node[27].veinsmobility maxSpeed 34.187945280177
scalar HighwayScenario1.node[27].veinsmobility totalDistance 2141.5686893631
scalar HighwayScenario1.node[27].veinsmobility totalCO2Emission 456.80664703279
scalar HighwayScenario1.node[28].appl generatedWSMs 0
scalar HighwayScenario1.node[28].appl receivedWSMs 35
scalar HighwayScenario1.node[28].appl generatedBSMs 1231
scalar HighwayScenario1.node[28].appl receivedBSMs 13513
scalar HighwayScenario1.node[28].appl generatedWSAs 0
scalar HighwayScenario1.node[28].appl receivedWSAs 0
scalar HighwayScenario1.node[28].appl delayBSM_P1 0.00040633490632302
scalar HighwayScenario1.node[28].appl delayBSM_P2 0.00052628154117143
scalar HighwayScenario1.node[28].nic.phy80211p busyTime 0.046599194429687
scalar HighwayScenario1.node[28].nic.mac1609_4 ReceivedUnicastPackets 0
scalar HighwayScenario1.node[28].nic.mac1609_4 ReceivedBroadcasts 13548
scalar HighwayScenario1.node[28].nic.mac1609_4 SentPackets 1231
scalar HighwayScenario1.node[28].nic.mac1609_4 SNIRLostPackets 1067
scalar HighwayScenario1.node[28].nic.mac1609_4 RXTXLostPackets 0
scalar HighwayScenario1.node[28].nic.mac1609_4 TotalLostPackets 1067
scalar HighwayScenario1.node[28].nic.mac1609_4 DroppedPacketsInMac 0
scalar HighwayScenario1.node[28].nic.mac1609_4 TooLittleTime 0
scalar HighwayScenario1.node[28].nic.mac1609_4 TimesIntoBackoff 1231
scalar HighwayScenario1.node[28].nic.mac1609_4 SlotsBackoff 1824
scalar HighwayScenario1.node[28].nic.mac1609_4 NumInternalContention 0
scalar HighwayScenario1.node[28].nic.mac1609_4 totalBusyTime 6.051463898421
scalar HighwayScenario1.node[28].veinsmobility startTime 57
scalar HighwayScenario1.node[28].veinsmobility totalTime 123
scalar HighwayScenario1.node[28].veinsmobility stopTime 180.04830738332
scalar HighwayScenario1.node[28].veinsmobility minSpeed 0
scalar HighwayScenario1.node[28].veinsmobility maxSpeed 30.655354232993
scalar HighwayScenario1.node[28].veinsmobility totalDistance 1832.4799501041
scalar HighwayScenario1.node[28].veinsmobility totalCO2Emission 478.90549291393
scalar HighwayScenario1.node[29].appl generatedWSMs 0
scalar HighwayScenario1.node[29].appl receivedWSMs 40
scalar HighwayScenario1.node[29].appl generatedBSMs 1211
scalar HighwayScenario1.node[29].appl receivedBSMs 13584
scalar HighwayScenario1.node[29].appl generatedWSAs 0
scalar HighwayScenario1.node[29].appl receivedWSAs 0
scalar HighwayScenario1.node[29].appl delayBSM_P1 0.00040069406699198
scalar HighwayScenario1.node[29].appl delayBSM_P2 0.000526260596425
scalar HighwayScenario1.node[29].nic.phy80211p busyTime 0.047481275238312
scalar HighwayScenario1.node[29].nic.mac1609_4 ReceivedUnicastPackets 0
scalar HighwayScenario1.node[29].nic.mac1609_4 ReceivedBroadcasts 13624
scalar HighwayScenario1.node[29].nic.mac1609_4 SentPackets 1211
scalar HighwayScenario1.node[29].nic.mac1609_4 SNIRLostPackets 1025
scalar HighwayScenario1.node[29].nic.mac1609_4 RXTXLostPackets 0
scalar HighwayScenario1.node[29].nic.mac1609_4 TotalLostPackets 1025
scalar HighwayScenario1.node[29].nic.mac1609_4 DroppedPacketsInMac 0
scalar HighwayScenario1.node[29].nic.mac1609_4 TooLittleTime 0
scalar HighwayScenario1.node[29].nic.mac1609_4 TimesIntoBackoff 1400
scalar HighwayScenario1.node[29].nic.mac1609_4 SlotsBackoff 2098
scalar HighwayScenario1.node[29].nic.mac1609_4 NumInternalContention 0
scalar HighwayScenario1.node[29].nic.mac1609_4 totalBusyTime 6.06893547086
scalar HighwayScenario1.node[29].veinsmobility startTime 59
scalar HighwayScenario1.node[29].veinsmobility totalTime 121
scalar HighwayScenario1.node[29].veinsmobility stopTime 180.04830738332
scalar HighwayScenario1.node[29].veinsmobility minSpeed 0
scalar HighwayScenario1.node[29].veinsmobility maxSpeed 33.028904507427
scalar HighwayScenario1.node[29].veinsmobility totalDistance 1923.1247644707
scalar HighwayScenario1.node[29].veinsmobility totalCO2Emission 472.62709147939
scalar HighwayScenario1.node[30].appl generatedWSMs 0
scalar HighwayScenario1.node[30].appl receivedWSMs 43
scalar HighwayScenario1.node[30].appl generatedBSMs 1191
scalar HighwayScenario1.node[30].appl receivedBSMs 13037
scalar HighwayScenario1.node[30].appl generatedWSAs 0
scalar HighwayScenario1.node[30].appl receivedWSAs 0
scalar HighwayScenario1.node[30].appl delayBSM_P1 0.00040757916088594
scalar HighwayScenario1.node[30].appl delayBSM_P2 0.00052657139644186
scalar HighwayScenario1.node[30].nic.phy80211p busyTime 0.04711653717124
scalar HighwayScenario1.node[30].nic.mac1609_4 ReceivedUnicastPackets 0
scalar HighwayScenario1.node[30].nic.mac1609_4 ReceivedBroadcasts 13080
scalar HighwayScenario1.node[30].nic.mac1609_4 SentPackets 1191
scalar HighwayScenario1.node[30].nic.mac1609_4 SNIRLostPackets 1214
scalar HighwayScenario1.node[30].nic.mac1609_4 RXTXLostPackets 0
scalar HighwayScenario1.node[30].nic.mac1609_4 TotalLostPackets 1214
scalar HighwayScenario1.node[30].nic.mac1609_4 DroppedPacketsInMac 0
scalar HighwayScenario1.node[30].nic.mac1609_4 TooLittleTime 0
scalar HighwayScenario1.node[30].nic.mac1609_4 TimesIntoBackoff 1191
scalar HighwayScenario1.node[30].nic.mac1609_4 SlotsBackoff 1796
scalar HighwayScenario1.node[30].nic.mac1609_4 NumInternalContention 0
scalar HighwayScenario1.node[30].nic.mac1609_4 totalBusyTime 5.868663
scalar HighwayScenario1.node[30].veinsmobility startTime 61
scalar HighwayScenario1.node[30].veinsmobility totalTime 119
scalar HighwayScenario1.node[30].veinsmobility stopTime 180.04830738332
scalar HighwayScenario1.node[30].veinsmobility minSpeed 0
scalar HighwayScenario1.node[30].veinsmobility maxSpeed 32.241743790504
scalar HighwayScenario1.node[30].veinsmobility totalDistance 1787.1905573927
scalar HighwayScenario1.node[30].veinsmobility totalCO2Emission 483.45321247779
scalar HighwayScenario1.node[31].appl generatedWSMs 0
scalar HighwayScenario1.node[31].appl receivedWSMs 40
scalar HighwayScenario1.node[31].appl generatedBSMs 1170
scalar HighwayScenario1.node[31].appl receivedBSMs 12896
scalar HighwayScenario1.node[31].appl generatedWSAs 0
scalar HighwayScenario1.node[31].appl receivedWSAs 0
scalar HighwayScenario1.node[31].appl delayBSM_P1 0.00041191739274969
scalar HighwayScenario1.node[31].appl delayBSM_P2 0.00052629155085
scalar HighwayScenario1.node[31].nic.phy80211p busyTime 0.047747533688777
scalar HighwayScenario1.node[31].nic.mac1609_4 ReceivedUnicastPackets 0
scalar HighwayScenario1.node[31].nic.mac1609_4 ReceivedBroadcasts 12936
scalar HighwayScenario1.node[31].nic.mac1609_4 SentPackets 1170
scalar HighwayScenario1.node[31].nic.mac1609_4 SNIRLostPackets 1307
scalar HighwayScenario1.node[31].nic.mac1609_4 RXTXLostPackets 0
scalar HighwayScenario1.node[31].nic.mac1609_4 TotalLostPackets 1307
scalar HighwayScenario1.node[31].nic.mac1609_4 DroppedPacketsInMac 0
scalar HighwayScenario1.node[31].nic.mac1609_4 TooLittleTime 0
scalar HighwayScenario1.node[31].nic.mac1609_4 TimesIntoBackoff 1170
scalar HighwayScenario1.node[31].nic.mac1609_4 SlotsBackoff 1763
scalar HighwayScenario1.node[31].nic.mac1609_4 NumInternalContention 0
scalar HighwayScenario1.node[31].nic.mac1609_4 totalBusyTime 5.860026
scalar HighwayScenario1.node[31].veinsmobility startTime 63
scalar HighwayScenario1.node[31].veinsmobility totalTime 117
scalar HighwayScenario1.node[31].veinsmobility stopTime 180.04830738332
scalar HighwayScenario1.node[31].veinsmobility minSpeed 0
scalar HighwayScenario1.node[31].veinsmobility maxSpeed 32.881584998627
scalar HighwayScenario1.node[31].veinsmobility totalDistance 1506.1880769815
scalar HighwayScenario1.node[31].veinsmobility totalCO2Emission 402.58746272111
scalar HighwayScenario1.node[32].appl generatedWSMs 0
scalar HighwayScenario1.node[32].appl receivedWSMs 37
scalar HighwayScenario1.node[32].appl generatedBSMs 1150
scalar HighwayScenario1.node[32].appl receivedBSMs 12846
scalar HighwayScenario1.node[32].appl generatedWSAs 0
scalar HighwayScenario1.node[32].appl receivedWSAs 0
scalar HighwayScenario1.node[32].appl delayBSM_P1 0.00041458339716565
scalar HighwayScenario1.node[32].appl delayBSM_P2 0.00052630352272973
scalar HighwayScenario1.node[32].nic.phy80211p busyTime 0.049044441663967
scalar HighwayScenario1.node[32].nic.mac1609_4 ReceivedUnicastPackets 0
scalar HighwayScenario1.node[32].nic.mac1609_4 ReceivedBroadcasts 12883
scalar HighwayScenario1.node[32].nic.mac1609_4 SentPackets 1150
scalar HighwayScenario1.node[32].nic.mac1609_4 SNIRLostPackets 1498
scalar HighwayScenario1.node[32].nic.mac1609_4 RXTXLostPackets 0
scalar HighwayScenario1.node[32].nic.mac1609_4 TotalLostPackets 1498
scalar HighwayScenario1.node[32].nic.mac1609_4 DroppedPacketsInMac 0
scalar HighwayScenario1.node[32].nic.mac1609_4 TooLittleTime 0
scalar HighwayScenario1.node[32].nic.mac1609_4 TimesIntoBackoff 1150
scalar HighwayScenario1.node[32].nic.mac1609_4 SlotsBackoff 1779
scalar HighwayScenario1.node[32].nic.mac1609_4 NumInternalContention 0
scalar HighwayScenario1.node[32].nic.mac1609_4 totalBusyTime 5.885886
scalar HighwayScenario1.node[32].veinsmobility startTime 65
scalar HighwayScenario1.node[32].veinsmobility totalTime 115
scalar HighwayScenario1.node[32].veinsmobility stopTime 180.04830738332
scalar HighwayScenario1.node[32].veinsmobility minSpeed 0
scalar HighwayScenario1.node[32].veinsmobility maxSpeed 34.032394894038
scalar HighwayScenario1.node[32].veinsmobility totalDistance 1472.814305981
scalar HighwayScenario1.node[32].veinsmobility totalCO2Emission 412.52026853904
scalar HighwayScenario1.node[33].appl generatedWSMs 0
scalar HighwayScenario1.node[33].appl receivedWSMs 29
scalar HighwayScenario1.node[33].appl generatedBSMs 1131
scalar HighwayScenario1.node[33].appl receivedBSMs 13084
scalar HighwayScenario1.node[33].appl generatedWSAs 0
scalar HighwayScenario1.node[33].appl receivedWSAs 0
scalar HighwayScenario1.node[33].appl delayBSM_P1 0.00043268604857979
scalar HighwayScenario1.node[33].appl delayBSM_P2 0.00052647880417241
scalar HighwayScenario1.node[33].nic.phy80211p busyTime 0.050565356813495
scalar HighwayScenario1.node[33].nic.mac1609_4 ReceivedUnicastPackets 0
scalar HighwayScenario1.node[33].nic.mac1609_4 ReceivedBroadcasts 13113
scalar HighwayScenario1.node[33].nic.mac1609_4 SentPackets 1131
scalar HighwayScenario1.node[33].nic.mac1609_4 SNIRLostPackets 1459
scalar HighwayScenario1.node[33].nic.mac1609_4 RXTXLostPackets 0
scalar HighwayScenario1.node[33].nic.mac1609_4 TotalLostPackets 1459
scalar HighwayScenario1.node[33].nic.mac1609_4 DroppedPacketsInMac 0
scalar HighwayScenario1.node[33].nic.mac1609_4 TooLittleTime 0
scalar HighwayScenario1.node[33].nic.mac1609_4 TimesIntoBackoff 1131
scalar HighwayScenario1.node[33].nic.mac1609_4 SlotsBackoff 1674
scalar HighwayScenario1.node[33].nic.mac1609_4 NumInternalContention 0
scalar HighwayScenario1.node[33].nic.mac1609_4 totalBusyTime 5.979707
scalar HighwayScenario1.node[33].veinsmobility startTime 67
scalar HighwayScenario1.node[33].veinsmobility totalTime 113
scalar HighwayScenario1.node[33].veinsmobility stopTime 180.04830738332
scalar HighwayScenario1.node[33].veinsmobility minSpeed 0
scalar HighwayScenario1.node[33].veinsmobility maxSpeed 32.336215222711
scalar HighwayScenario1.node[33].veinsmobility totalDistance 1439.2744122215
scalar HighwayScenario1.node[33].veinsmobility totalCO2Emission 475.02118249613
scalar HighwayScenario1.node[34].appl generatedWSMs 0
scalar HighwayScenario1.node[34].appl receivedWSMs 24
scalar HighwayScenario1.node[34].appl generatedBSMs 1111
scalar HighwayScenario1.node[34].appl receivedBSMs 15143
scalar HighwayScenario1.node[34].appl generatedWSAs 0
scalar HighwayScenario1.node[34].appl receivedWSAs 0
scalar HighwayScenario1.node[34].appl delayBSM_P1 0.00043096128079337
scalar HighwayScenario1.node[34].appl delayBSM_P2 0.00052684336054167
scalar HighwayScenario1.node[34].nic.phy80211p busyTime 0.060627092466695
scalar HighwayScenario1.node[34].nic.mac1609_4 ReceivedUnicastPackets 0
scalar HighwayScenario1.node[34].nic.mac1609_4 ReceivedBroadcasts 15167
scalar HighwayScenario1.node[34].nic.mac1609_4 SentPackets 1111
scalar HighwayScenario1.node[34].nic.mac1609_4 SNIRLostPackets 2000
scalar HighwayScenario1.node[34].nic.mac1609_4 RXTXLostPackets 0
scalar HighwayScenario1.node[34].nic.mac1609_4 TotalLostPackets 2000
scalar HighwayScenario1.node[34].nic.mac1609_4 DroppedPacketsInMac 0
scalar HighwayScenario1.node[34].nic.mac1609_4 TooLittleTime 0
scalar HighwayScenario1.node[34].nic.mac1609_4 TimesIntoBackoff 1461
scalar HighwayScenario1.node[34].nic.mac1609_4 SlotsBackoff 2174
scalar HighwayScenario1.node[34].nic.mac1609_4 NumInternalContention 0
scalar HighwayScenario1.node[34].nic.mac1609_4 totalBusyTime 6.890054
scalar HighwayScenario1.node[34].veinsmobility startTime 69
scalar HighwayScenario1.node[34].veinsmobility totalTime 111
scalar HighwayScenario1.node[34].veinsmobility stopTime 180.04830738332
scalar HighwayScenario1.node[34].veinsmobility minSpeed 0
scalar HighwayScenario1.node[34].veinsmobility maxSpeed 33.926419435525
scalar HighwayScenario1.node[34].veinsmobility totalDistance 1353.0724186509
scalar HighwayScenario1.node[34].veinsmobility totalCO2Emission 431.26650173054
scalar HighwayScenario1.node[35].appl generatedWSMs 0
scalar HighwayScenario1.node[35].appl receivedWSMs 16
scalar HighwayScenario1.node[35].appl generatedBSMs 1090
scalar HighwayScenario1.node[35].appl receivedBSMs 15003
scalar HighwayScenario1.node[35].appl generatedWSAs 0
scalar HighwayScenario1.node[35].appl receivedWSAs 0
scalar HighwayScenario1.node[35].appl delayBSM_P1 0.00044030304466433
scalar HighwayScenario1.node[35].appl delayBSM_P2 0.00052842491375
scalar HighwayScenario1.node[35].nic.phy80211p busyTime 0.058073785388873
scalar HighwayScenario1.node[35].nic.mac1609_4 ReceivedUnicastPackets 0
scalar HighwayScenario1.node[35].nic.mac1609_4 ReceivedBroadcasts 15019
scalar HighwayScenario1.node[35].nic.mac1609_4 SentPackets 1090
scalar HighwayScenario1.node[35].nic.mac1609_4 SNIRLostPackets 1130
scalar HighwayScenario1.node[35].nic.mac1609_4 RXTXLostPackets 0
scalar HighwayScenario1.node[35].nic.mac1609_4 TotalLostPackets 1130
scalar HighwayScenario1.node[35].nic.mac1609_4 DroppedPacketsInMac 0
scalar HighwayScenario1.node[35].nic.mac1609_4 TooLittleTime 0
scalar HighwayScenario1.node[35].nic.mac1609_4 TimesIntoBackoff 1090
scalar HighwayScenario1.node[35].nic.mac1609_4 SlotsBackoff 1664
scalar HighwayScenario1.node[35].nic.mac1609_4 NumInternalContention 0
scalar HighwayScenario1.node[35].nic.mac1609_4 totalBusyTime 6.572274
scalar HighwayScenario1.node[35].veinsmobility startTime 71
scalar HighwayScenario1.node[35].veinsmobility totalTime 109
scalar HighwayScenario1.node[35].veinsmobility stopTime 180.04830738332
scalar HighwayScenario1.node[35].veinsmobility minSpeed 0
scalar HighwayScenario1.node[35].veinsmobility maxSpeed 32.673305197161
scalar HighwayScenario1.node[35].veinsmobility totalDistance 1295.1636908597
scalar HighwayScenario1.node[35].veinsmobility totalCO2Emission 494.20552848474
scalar HighwayScenario1.node[37].appl generatedWSMs 0
scalar HighwayScenario1.node[37].appl receivedWSMs 14
scalar HighwayScenario1.node[37].appl generatedBSMs 1070
scalar HighwayScenario1.node[37].appl receivedBSMs 14249
scalar HighwayScenario1.node[37].appl generatedWSAs 0
scalar HighwayScenario1.node[37].appl receivedWSAs 0
scalar HighwayScenario1.node[37].appl delayBSM_P1 0.00043531285847421
scalar HighwayScenario1.node[37].appl delayBSM_P2 0.00052882982378571
scalar HighwayScenario1.node[37].nic.phy80211p busyTime 0.055597030401309
scalar HighwayScenario1.node[37].nic.mac1609_4 ReceivedUnicastPackets 0
scalar HighwayScenario1.node[37].nic.mac1609_4 ReceivedBroadcasts 14263
scalar HighwayScenario1.node[37].nic.mac1609_4 SentPackets 1070
scalar HighwayScenario1.node[37].nic.mac1609_4 SNIRLostPackets 914
scalar HighwayScenario1.node[37].nic.mac1609_4 RXTXLostPackets 0
scalar HighwayScenario1.node[37].nic.mac1609_4 TotalLostPackets 914
scalar HighwayScenario1.node[37].nic.mac1609_4 DroppedPacketsInMac 0
scalar HighwayScenario1.node[37].nic.mac1609_4 TooLittleTime 0
scalar HighwayScenario1.node[37].nic.mac1609_4 TimesIntoBackoff 1420
scalar HighwayScenario1.node[37].nic.mac1609_4 SlotsBackoff 2096
scalar HighwayScenario1.node[37].nic.mac1609_4 NumInternalContention 0
scalar HighwayScenario1.node[37].nic.mac1609_4 totalBusyTime 6.194894
scalar HighwayScenario1.node[37].veinsmobility startTime 73
scalar HighwayScenario1.node[37].veinsmobility totalTime 107
scalar HighwayScenario1.node[37].veinsmobility stopTime 180.04830738332
scalar HighwayScenario1.node[37].veinsmobility minSpeed 0
scalar HighwayScenario1.node[37].veinsmobility maxSpeed 30.58183279966
scalar HighwayScenario1.node[37].veinsmobility totalDistance 1252.9436750229
scalar HighwayScenario1.node[37].veinsmobility totalCO2Emission 428.18814929708
scalar HighwayScenario1.node[38].appl generatedWSMs 0
scalar HighwayScenario1.node[38].appl receivedWSMs 12
scalar HighwayScenario1.node[38].appl generatedBSMs 1051
scalar HighwayScenario1.node[38].appl receivedBSMs 11775
scalar HighwayScenario1.node[38].appl generatedWSAs 0
scalar HighwayScenario1.node[38].appl receivedWSAs 0
scalar HighwayScenario1.node[38].appl delayBSM_P1 0.00041183910930905
scalar HighwayScenario1.node[38].appl delayBSM_P2 0.00052946520141667
scalar HighwayScenario1.node[38].nic.phy80211p busyTime 0.049466004064571
scalar HighwayScenario1.node[38].nic.mac1609_4 ReceivedUnicastPackets 0
scalar HighwayScenario1.node[38].nic.mac1609_4 ReceivedBroadcasts 11787
scalar HighwayScenario1.node[38].nic.mac1609_4 SentPackets 1051
scalar HighwayScenario1.node[38].nic.mac1609_4 SNIRLostPackets 1464
scalar HighwayScenario1.node[38].nic.mac1609_4 RXTXLostPackets 0
scalar HighwayScenario1.node[38].nic.mac1609_4 TotalLostPackets 1464
scalar HighwayScenario1.node[38].nic.mac1609_4 DroppedPacketsInMac 0
scalar HighwayScenario1.node[38].nic.mac1609_4 TooLittleTime 0
scalar HighwayScenario1.node[38].nic.mac1609_4 TimesIntoBackoff 1401
scalar HighwayScenario1.node[38].nic.mac1609_4 SlotsBackoff 2105
scalar HighwayScenario1.node[38].nic.mac1609_4 NumInternalContention 0
scalar HighwayScenario1.node[38].nic.mac1609_4 totalBusyTime 5.392979
scalar HighwayScenario1.node[38].veinsmobility startTime 75
scalar HighwayScenario1.node[38].veinsmobility totalTime 105
scalar HighwayScenario1.node[38].veinsmobility stopTime 180.04830738332
scalar HighwayScenario1.node[38].veinsmobility minSpeed 0
scalar HighwayScenario1.node[38].veinsmobility maxSpeed 35.929113717391
scalar HighwayScenario1.node[38].veinsmobility totalDistance 2185.1402132542
scalar HighwayScenario1.node[38].veinsmobility totalCO2Emission 602.11688006871
scalar HighwayScenario1.node[39].appl generatedWSMs 0
scalar HighwayScenario1.node[39].appl receivedWSMs 17
scalar HighwayScenario1.node[39].appl generatedBSMs 1031
scalar HighwayScenario1.node[39].appl receivedBSMs 11991
scalar HighwayScenario1.node[39].appl generatedWSAs 0
scalar HighwayScenario1.node[39].appl receivedWSAs 0
scalar HighwayScenario1.node[39].appl delayBSM_P1 0.00040015742708473
scalar HighwayScenario1.node[39].appl delayBSM_P2 0.00052833627688235
scalar HighwayScenario1.node[39].nic.phy80211p busyTime 0.0459092645006
scalar HighwayScenario1.node[39].nic.mac1609_4 ReceivedUnicastPackets 0
scalar HighwayScenario1.node[39].nic.mac1609_4 ReceivedBroadcasts 12008
scalar HighwayScenario1.node[39].nic.mac1609_4 SentPackets 1031
scalar HighwayScenario1.node[39].nic.mac1609_4 SNIRLostPackets 55
scalar HighwayScenario1.node[39].nic.mac1609_4 RXTXLostPackets 0
scalar HighwayScenario1.node[39].nic.mac1609_4 TotalLostPackets 55
scalar HighwayScenario1.node[39].nic.mac1609_4 DroppedPacketsInMac 0
scalar HighwayScenario1.node[39].nic.mac1609_4 TooLittleTime 0
scalar HighwayScenario1.node[39].nic.mac1609_4 TimesIntoBackoff 1241
scalar HighwayScenario1.node[39].nic.mac1609_4 SlotsBackoff 1799
scalar HighwayScenario1.node[39].nic.mac1609_4 NumInternalContention 0
scalar HighwayScenario1.node[39].nic.mac1609_4 totalBusyTime 5.136055
scalar HighwayScenario1.node[39].veinsmobility startTime 77
scalar HighwayScenario1.node[39].veinsmobility totalTime 103
scalar HighwayScenario1.node[39].veinsmobility stopTime 180.04830738332
scalar HighwayScenario1.node[39].veinsmobility minSpeed 19.868735266224
scalar HighwayScenario1.node[39].veinsmobility maxSpeed 29.878403881011
scalar HighwayScenario1.node[39].veinsmobility totalDistance 2985.8638532523
scalar HighwayScenario1.node[39].veinsmobility totalCO2Emission 540.98298263116
scalar HighwayScenario1.node[40].appl generatedWSMs 0
scalar HighwayScenario1.node[40].appl receivedWSMs 12
scalar HighwayScenario1.node[40].appl generatedBSMs 1011
scalar HighwayScenario1.node[40].appl receivedBSMs 12379
scalar HighwayScenario1.node[40].appl generatedWSAs 0
scalar HighwayScenario1.node[40].appl receivedWSAs 0
scalar HighwayScenario1.node[40].appl delayBSM_P1 0.00040269692736796
scalar HighwayScenario1.node[40].appl delayBSM_P2 0.00052838083716667
scalar HighwayScenario1.node[40].nic.phy80211p busyTime 0.048270219722701
scalar HighwayScenario1.node[40].nic.mac1609_4 ReceivedUnicastPackets 0
scalar HighwayScenario1.node[40].nic.mac1609_4 ReceivedBroadcasts 12391
scalar HighwayScenario1.node[40].nic.mac1609_4 SentPackets 1011
scalar HighwayScenario1.node[40].nic.mac1609_4 SNIRLostPackets 48
scalar HighwayScenario1.node[40].nic.mac1609_4 RXTXLostPackets 0
scalar HighwayScenario1.node[40].nic.mac1609_4 TotalLostPackets 48
scalar HighwayScenario1.node[40].nic.mac1609_4 DroppedPacketsInMac 0
scalar HighwayScenario1.node[40].nic.mac1609_4 TooLittleTime 0
scalar HighwayScenario1.node[40].nic.mac1609_4 TimesIntoBackoff 1011
scalar HighwayScenario1.node[40].nic.mac1609_4 SlotsBackoff 1539
scalar HighwayScenario1.node[40].nic.mac1609_4 NumInternalContention 0
scalar HighwayScenario1.node[40].nic.mac1609_4 totalBusyTime 5.271027
scalar HighwayScenario1.node[40].veinsmobility startTime 79
scalar HighwayScenario1.node[40].veinsmobility totalTime 101
scalar HighwayScenario1.node[40].veinsmobility stopTime 180.04830738332
scalar HighwayScenario1.node[40].veinsmobility minSpeed 24.750062368937
scalar HighwayScenario1.node[40].veinsmobility maxSpeed 30.851861233068
scalar HighwayScenario1.node[40].veinsmobility totalDistance 2946.5811478839
scalar HighwayScenario1.node[40].veinsmobility totalCO2Emission 560.45364081544
scalar HighwayScenario1.node[41].appl generatedWSMs 0
scalar HighwayScenario1.node[41].appl receivedWSMs 8
scalar HighwayScenario1.node[41].appl generatedBSMs 991
scalar HighwayScenario1.node[41].appl receivedBSMs 12902
scalar HighwayScenario1.node[41].appl generatedWSAs 0
scalar HighwayScenario1.node[41].appl receivedWSAs 0
scalar HighwayScenario1.node[41].appl delayBSM_P1 0.000402301700622
scalar HighwayScenario1.node[41].appl delayBSM_P2 0.000528661659625
scalar HighwayScenario1.node[41].nic.phy80211p busyTime 0.051321462570048
scalar HighwayScenario1.node[41].nic.mac1609_4 ReceivedUnicastPackets 0
scalar HighwayScenario1.node[41].nic.mac1609_4 ReceivedBroadcasts 12910
scalar HighwayScenario1.node[41].nic.mac1609_4 SentPackets 991
scalar HighwayScenario1.node[41].nic.mac1609_4 SNIRLostPackets 55
scalar HighwayScenario1.node[41].nic.mac1609_4 RXTXLostPackets 0
scalar HighwayScenario1.node[41].nic.mac1609_4 TotalLostPackets 55
scalar HighwayScenario1.node[41].nic.mac1609_4 DroppedPacketsInMac 0
scalar HighwayScenario1.node[41].nic.mac1609_4 TooLittleTime 0
scalar HighwayScenario1.node[41].nic.mac1609_4 TimesIntoBackoff 991
scalar HighwayScenario1.node[41].nic.mac1609_4 SlotsBackoff 1510
scalar HighwayScenario1.node[41].nic.mac1609_4 NumInternalContention 0
scalar HighwayScenario1.node[41].nic.mac1609_4 totalBusyTime 5.464927
scalar HighwayScenario1.node[41].veinsmobility startTime 81
scalar HighwayScenario1.node[41].veinsmobility totalTime 99
scalar HighwayScenario1.node[41].veinsmobility stopTime 180.04830738332
scalar HighwayScenario1.node[41].veinsmobility minSpeed 27.243780266337
scalar HighwayScenario1.node[41].veinsmobility maxSpeed 31.666920582421
scalar HighwayScenario1.node[41].veinsmobility totalDistance 2907.1642713177
scalar HighwayScenario1.node[41].veinsmobility totalCO2Emission 568.59468216604
scalar HighwayScenario1.node[42].appl generatedWSMs 0
scalar HighwayScenario1.node[42].appl receivedWSMs 3
scalar HighwayScenario1.node[42].appl generatedBSMs 970
scalar HighwayScenario1.node[42].appl receivedBSMs 13366
scalar HighwayScenario1.node[42].appl generatedWSAs 0
scalar HighwayScenario1.node[42].appl receivedWSAs 0
scalar HighwayScenario1.node[42].appl delayBSM_P1 0.00040198798838606
scalar HighwayScenario1.node[42].appl delayBSM_P2 0.00053029441733333
scalar HighwayScenario1.node[42].nic.phy80211p busyTime 0.054375971537104
scalar HighwayScenario1.node[42].nic.mac1609_4 ReceivedUnicastPackets 0
scalar HighwayScenario1.node[42].nic.mac1609_4 ReceivedBroadcasts 13369
scalar HighwayScenario1.node[42].nic.mac1609_4 SentPackets 970
scalar HighwayScenario1.node[42].nic.mac1609_4 SNIRLostPackets 92
scalar HighwayScenario1.node[42].nic.mac1609_4 RXTXLostPackets 0
scalar HighwayScenario1.node[42].nic.mac1609_4 TotalLostPackets 92
[...]
scalar HighwayScenario1.node[8].appl delayBSM_P1 0.00040687183354318
scalar HighwayScenario1.node[8].appl delayBSM_P2 0.000529179875
scalar HighwayScenario1.node[8].nic.phy80211p busyTime 0.05062018816665
scalar HighwayScenario1.node[8].nic.mac1609_4 ReceivedUnicastPackets 0
scalar HighwayScenario1.node[8].nic.mac1609_4 ReceivedBroadcasts 18196
scalar HighwayScenario1.node[8].nic.mac1609_4 SentPackets 1631
scalar HighwayScenario1.node[8].nic.mac1609_4 SNIRLostPackets 2856
scalar HighwayScenario1.node[8].nic.mac1609_4 RXTXLostPackets 0
scalar HighwayScenario1.node[8].nic.mac1609_4 TotalLostPackets 2856
scalar HighwayScenario1.node[8].nic.mac1609_4 DroppedPacketsInMac 0
scalar HighwayScenario1.node[8].nic.mac1609_4 TooLittleTime 0
scalar HighwayScenario1.node[8].nic.mac1609_4 TimesIntoBackoff 2562
scalar HighwayScenario1.node[8].nic.mac1609_4 SlotsBackoff 3833
scalar HighwayScenario1.node[8].nic.mac1609_4 NumInternalContention 0
scalar HighwayScenario1.node[8].nic.mac1609_4 totalBusyTime 8.336839
scalar HighwayScenario1.node[8].veinsmobility startTime 17
scalar HighwayScenario1.node[8].veinsmobility totalTime 163
scalar HighwayScenario1.node[8].veinsmobility stopTime 180.04830738332
scalar HighwayScenario1.node[8].veinsmobility minSpeed 29.509973557223
scalar HighwayScenario1.node[8].veinsmobility maxSpeed 30.738815846061
scalar HighwayScenario1.node[8].veinsmobility totalDistance 4911.1312392524
scalar HighwayScenario1.node[8].veinsmobility totalCO2Emission 847.24489145199
scalar HighwayScenario1.node[81].appl generatedWSMs 0
scalar HighwayScenario1.node[81].appl receivedWSMs 0
scalar HighwayScenario1.node[81].appl generatedBSMs 190
scalar HighwayScenario1.node[81].appl receivedBSMs 1826
scalar HighwayScenario1.node[81].appl generatedWSAs 0
scalar HighwayScenario1.node[81].appl receivedWSAs 0
scalar HighwayScenario1.node[81].appl delayBSM_P1 0.00041108818921796
scalar HighwayScenario1.node[81].appl delayBSM_P2 0
scalar HighwayScenario1.node[81].nic.phy80211p busyTime 0.039450434355015
scalar HighwayScenario1.node[81].nic.mac1609_4 ReceivedUnicastPackets 0
scalar HighwayScenario1.node[81].nic.mac1609_4 ReceivedBroadcasts 1826
scalar HighwayScenario1.node[81].nic.mac1609_4 SentPackets 190
scalar HighwayScenario1.node[81].nic.mac1609_4 SNIRLostPackets 91
scalar HighwayScenario1.node[81].nic.mac1609_4 RXTXLostPackets 0
scalar HighwayScenario1.node[81].nic.mac1609_4 TotalLostPackets 91
scalar HighwayScenario1.node[81].nic.mac1609_4 DroppedPacketsInMac 0
scalar HighwayScenario1.node[81].nic.mac1609_4 TooLittleTime 0
scalar HighwayScenario1.node[81].nic.mac1609_4 TimesIntoBackoff 200
scalar HighwayScenario1.node[81].nic.mac1609_4 SlotsBackoff 275
scalar HighwayScenario1.node[81].nic.mac1609_4 NumInternalContention 0
scalar HighwayScenario1.node[81].nic.mac1609_4 totalBusyTime 0.826134
scalar HighwayScenario1.node[81].veinsmobility startTime 161
scalar HighwayScenario1.node[81].veinsmobility totalTime 19
scalar HighwayScenario1.node[81].veinsmobility stopTime 180.04830738332
scalar HighwayScenario1.node[81].veinsmobility minSpeed 32.931355994664
scalar HighwayScenario1.node[81].veinsmobility maxSpeed 34.083929459451
scalar HighwayScenario1.node[81].veinsmobility totalDistance 638.16015931901
scalar HighwayScenario1.node[81].veinsmobility totalCO2Emission 118.48970698733
scalar HighwayScenario1.node[82].appl generatedWSMs 0
scalar HighwayScenario1.node[82].appl receivedWSMs 0
scalar HighwayScenario1.node[82].appl generatedBSMs 171
scalar HighwayScenario1.node[82].appl receivedBSMs 1404
scalar HighwayScenario1.node[82].appl generatedWSAs 0
scalar HighwayScenario1.node[82].appl receivedWSAs 0
scalar HighwayScenario1.node[82].appl delayBSM_P1 0.00040241608151424
scalar HighwayScenario1.node[82].appl delayBSM_P2 0
scalar HighwayScenario1.node[82].nic.phy80211p busyTime 0.034168318701819
scalar HighwayScenario1.node[82].nic.mac1609_4 ReceivedUnicastPackets 0
scalar HighwayScenario1.node[82].nic.mac1609_4 ReceivedBroadcasts 1404
scalar HighwayScenario1.node[82].nic.mac1609_4 SentPackets 171
scalar HighwayScenario1.node[82].nic.mac1609_4 SNIRLostPackets 82
scalar HighwayScenario1.node[82].nic.mac1609_4 RXTXLostPackets 0
scalar HighwayScenario1.node[82].nic.mac1609_4 TotalLostPackets 82
scalar HighwayScenario1.node[82].nic.mac1609_4 DroppedPacketsInMac 0
scalar HighwayScenario1.node[82].nic.mac1609_4 TooLittleTime 0
scalar HighwayScenario1.node[82].nic.mac1609_4 TimesIntoBackoff 171
scalar HighwayScenario1.node[82].nic.mac1609_4 SlotsBackoff 270
scalar HighwayScenario1.node[82].nic.mac1609_4 NumInternalContention 0
scalar HighwayScenario1.node[82].nic.mac1609_4 totalBusyTime 0.649715
scalar HighwayScenario1.node[82].veinsmobility startTime 163
scalar HighwayScenario1.node[82].veinsmobility totalTime 17
scalar HighwayScenario1.node[82].veinsmobility stopTime 180.04830738332
scalar HighwayScenario1.node[82].veinsmobility minSpeed 31.41530806508
scalar HighwayScenario1.node[82].veinsmobility maxSpeed 32.62481374597
scalar HighwayScenario1.node[82].veinsmobility totalDistance 544.80142038684
scalar HighwayScenario1.node[82].veinsmobility totalCO2Emission 104.70825777268
scalar HighwayScenario1.node[83].appl generatedWSMs 0
scalar HighwayScenario1.node[83].appl receivedWSMs 0
scalar HighwayScenario1.node[83].appl generatedBSMs 151
scalar HighwayScenario1.node[83].appl receivedBSMs 1366
scalar HighwayScenario1.node[83].appl generatedWSAs 0
scalar HighwayScenario1.node[83].appl receivedWSAs 0
scalar HighwayScenario1.node[83].appl delayBSM_P1 0.0004025648418858
scalar HighwayScenario1.node[83].appl delayBSM_P2 0
scalar HighwayScenario1.node[83].nic.phy80211p busyTime 0.035583536829756
scalar HighwayScenario1.node[83].nic.mac1609_4 ReceivedUnicastPackets 0
scalar HighwayScenario1.node[83].nic.mac1609_4 ReceivedBroadcasts 1366
scalar HighwayScenario1.node[83].nic.mac1609_4 SentPackets 151
scalar HighwayScenario1.node[83].nic.mac1609_4 SNIRLostPackets 0
scalar HighwayScenario1.node[83].nic.mac1609_4 RXTXLostPackets 0
scalar HighwayScenario1.node[83].nic.mac1609_4 TotalLostPackets 0
scalar HighwayScenario1.node[83].nic.mac1609_4 DroppedPacketsInMac 0
scalar HighwayScenario1.node[83].nic.mac1609_4 TooLittleTime 0
scalar HighwayScenario1.node[83].nic.mac1609_4 TimesIntoBackoff 151
scalar HighwayScenario1.node[83].nic.mac1609_4 SlotsBackoff 245
scalar HighwayScenario1.node[83].nic.mac1609_4 NumInternalContention 0
scalar HighwayScenario1.node[83].nic.mac1609_4 totalBusyTime 0.594815
scalar HighwayScenario1.node[83].veinsmobility startTime 165
scalar HighwayScenario1.node[83].veinsmobility totalTime 15
scalar HighwayScenario1.node[83].veinsmobility stopTime 180.04830738332
scalar HighwayScenario1.node[83].veinsmobility minSpeed 28.778539071287
scalar HighwayScenario1.node[83].veinsmobility maxSpeed 29.929372668635
scalar HighwayScenario1.node[83].veinsmobility totalDistance 438.10464237089
scalar HighwayScenario1.node[83].veinsmobility totalCO2Emission 74.692891772055
scalar HighwayScenario1.node[84].appl generatedWSMs 0
scalar HighwayScenario1.node[84].appl receivedWSMs 0
scalar HighwayScenario1.node[84].appl generatedBSMs 130
scalar HighwayScenario1.node[84].appl receivedBSMs 1147
scalar HighwayScenario1.node[84].appl generatedWSAs 0
scalar HighwayScenario1.node[84].appl receivedWSAs 0
scalar HighwayScenario1.node[84].appl delayBSM_P1 0.00040288997781953
scalar HighwayScenario1.node[84].appl delayBSM_P2 0
scalar HighwayScenario1.node[84].nic.phy80211p busyTime 0.03445841570031
scalar HighwayScenario1.node[84].nic.mac1609_4 ReceivedUnicastPackets 0
scalar HighwayScenario1.node[84].nic.mac1609_4 ReceivedBroadcasts 1147
scalar HighwayScenario1.node[84].nic.mac1609_4 SentPackets 130
scalar HighwayScenario1.node[84].nic.mac1609_4 SNIRLostPackets 0
scalar HighwayScenario1.node[84].nic.mac1609_4 RXTXLostPackets 0
scalar HighwayScenario1.node[84].nic.mac1609_4 TotalLostPackets 0
scalar HighwayScenario1.node[84].nic.mac1609_4 DroppedPacketsInMac 0
scalar HighwayScenario1.node[84].nic.mac1609_4 TooLittleTime 0
scalar HighwayScenario1.node[84].nic.mac1609_4 TimesIntoBackoff 130
scalar HighwayScenario1.node[84].nic.mac1609_4 SlotsBackoff 203
scalar HighwayScenario1.node[84].nic.mac1609_4 NumInternalContention 0
scalar HighwayScenario1.node[84].nic.mac1609_4 totalBusyTime 0.500714
scalar HighwayScenario1.node[84].veinsmobility startTime 167
scalar HighwayScenario1.node[84].veinsmobility totalTime 13
scalar HighwayScenario1.node[84].veinsmobility stopTime 180.04830738332
scalar HighwayScenario1.node[84].veinsmobility minSpeed 30.60406095378
scalar HighwayScenario1.node[84].veinsmobility maxSpeed 33.827547023592
scalar HighwayScenario1.node[84].veinsmobility totalDistance 426.47204726397
scalar HighwayScenario1.node[84].veinsmobility totalCO2Emission 81.970972352231
scalar HighwayScenario1.node[85].appl generatedWSMs 0
scalar HighwayScenario1.node[85].appl receivedWSMs 0
scalar HighwayScenario1.node[85].appl generatedBSMs 110
scalar HighwayScenario1.node[85].appl receivedBSMs 917
scalar HighwayScenario1.node[85].appl generatedWSAs 0
scalar HighwayScenario1.node[85].appl receivedWSAs 0
scalar HighwayScenario1.node[85].appl delayBSM_P1 0.00040336641567612
scalar HighwayScenario1.node[85].appl delayBSM_P2 0
scalar HighwayScenario1.node[85].nic.phy80211p busyTime 0.03253566248008
scalar HighwayScenario1.node[85].nic.mac1609_4 ReceivedUnicastPackets 0
scalar HighwayScenario1.node[85].nic.mac1609_4 ReceivedBroadcasts 917
scalar HighwayScenario1.node[85].nic.mac1609_4 SentPackets 110
scalar HighwayScenario1.node[85].nic.mac1609_4 SNIRLostPackets 0
scalar HighwayScenario1.node[85].nic.mac1609_4 RXTXLostPackets 0
scalar HighwayScenario1.node[85].nic.mac1609_4 TotalLostPackets 0
scalar HighwayScenario1.node[85].nic.mac1609_4 DroppedPacketsInMac 0
scalar HighwayScenario1.node[85].nic.mac1609_4 TooLittleTime 0
scalar HighwayScenario1.node[85].nic.mac1609_4 TimesIntoBackoff 110
scalar HighwayScenario1.node[85].nic.mac1609_4 SlotsBackoff 178
scalar HighwayScenario1.node[85].nic.mac1609_4 NumInternalContention 0
scalar HighwayScenario1.node[85].nic.mac1609_4 totalBusyTime 0.402694
scalar HighwayScenario1.node[85].veinsmobility startTime 169
scalar HighwayScenario1.node[85].veinsmobility totalTime 11
scalar HighwayScenario1.node[85].veinsmobility stopTime 180.04830738332
scalar HighwayScenario1.node[85].veinsmobility minSpeed 29.91425901279
scalar HighwayScenario1.node[85].veinsmobility maxSpeed 31.056963507204
scalar HighwayScenario1.node[85].veinsmobility totalDistance 333.8554441982
scalar HighwayScenario1.node[85].veinsmobility totalCO2Emission 52.15044494655
scalar HighwayScenario1.node[86].appl generatedWSMs 0
scalar HighwayScenario1.node[86].appl receivedWSMs 0
scalar HighwayScenario1.node[86].appl generatedBSMs 91
scalar HighwayScenario1.node[86].appl receivedBSMs 701
scalar HighwayScenario1.node[86].appl generatedWSAs 0
scalar HighwayScenario1.node[86].appl receivedWSAs 0
scalar HighwayScenario1.node[86].appl delayBSM_P1 0.00040446357798859
scalar HighwayScenario1.node[86].appl delayBSM_P2 0
scalar HighwayScenario1.node[86].nic.phy80211p busyTime 0.030542728964904
scalar HighwayScenario1.node[86].nic.mac1609_4 ReceivedUnicastPackets 0
scalar HighwayScenario1.node[86].nic.mac1609_4 ReceivedBroadcasts 701
scalar HighwayScenario1.node[86].nic.mac1609_4 SentPackets 91
scalar HighwayScenario1.node[86].nic.mac1609_4 SNIRLostPackets 4
scalar HighwayScenario1.node[86].nic.mac1609_4 RXTXLostPackets 0
scalar HighwayScenario1.node[86].nic.mac1609_4 TotalLostPackets 4
scalar HighwayScenario1.node[86].nic.mac1609_4 DroppedPacketsInMac 0
scalar HighwayScenario1.node[86].nic.mac1609_4 TooLittleTime 0
scalar HighwayScenario1.node[86].nic.mac1609_4 TimesIntoBackoff 91
scalar HighwayScenario1.node[86].nic.mac1609_4 SlotsBackoff 134
scalar HighwayScenario1.node[86].nic.mac1609_4 NumInternalContention 0
scalar HighwayScenario1.node[86].nic.mac1609_4 totalBusyTime 0.312123
scalar HighwayScenario1.node[86].veinsmobility startTime 171
scalar HighwayScenario1.node[86].veinsmobility totalTime 9
scalar HighwayScenario1.node[86].veinsmobility stopTime 180.04830738332
scalar HighwayScenario1.node[86].veinsmobility minSpeed 33.351747006431
scalar HighwayScenario1.node[86].veinsmobility maxSpeed 34.402485437944
scalar HighwayScenario1.node[86].veinsmobility totalDistance 305.88894139103
scalar HighwayScenario1.node[86].veinsmobility totalCO2Emission 45.154104837393
scalar HighwayScenario1.node[87].appl generatedWSMs 0
scalar HighwayScenario1.node[87].appl receivedWSMs 0
scalar HighwayScenario1.node[87].appl generatedBSMs 70
scalar HighwayScenario1.node[87].appl receivedBSMs 445
scalar HighwayScenario1.node[87].appl generatedWSAs 0
scalar HighwayScenario1.node[87].appl receivedWSAs 0
scalar HighwayScenario1.node[87].appl delayBSM_P1 0.00039988851465618
scalar HighwayScenario1.node[87].appl delayBSM_P2 0
scalar HighwayScenario1.node[87].nic.phy80211p busyTime 0.024749204385257
scalar HighwayScenario1.node[87].nic.mac1609_4 ReceivedUnicastPackets 0
scalar HighwayScenario1.node[87].nic.mac1609_4 ReceivedBroadcasts 445
scalar HighwayScenario1.node[87].nic.mac1609_4 SentPackets 70
scalar HighwayScenario1.node[87].nic.mac1609_4 SNIRLostPackets 0
scalar HighwayScenario1.node[87].nic.mac1609_4 RXTXLostPackets 0
scalar HighwayScenario1.node[87].nic.mac1609_4 TotalLostPackets 0
scalar HighwayScenario1.node[87].nic.mac1609_4 DroppedPacketsInMac 0
scalar HighwayScenario1.node[87].nic.mac1609_4 TooLittleTime 0
scalar HighwayScenario1.node[87].nic.mac1609_4 TimesIntoBackoff 80
scalar HighwayScenario1.node[87].nic.mac1609_4 SlotsBackoff 117
scalar HighwayScenario1.node[87].nic.mac1609_4 NumInternalContention 0
scalar HighwayScenario1.node[87].nic.mac1609_4 totalBusyTime 0.20195
scalar HighwayScenario1.node[87].veinsmobility startTime 173
scalar HighwayScenario1.node[87].veinsmobility totalTime 7
scalar HighwayScenario1.node[87].veinsmobility stopTime 180.04830738332
scalar HighwayScenario1.node[87].veinsmobility minSpeed 32.189498037431
scalar HighwayScenario1.node[87].veinsmobility maxSpeed 33.154375242692
scalar HighwayScenario1.node[87].veinsmobility totalDistance 229.54723850485
scalar HighwayScenario1.node[87].veinsmobility totalCO2Emission 35.418127732826
scalar HighwayScenario1.node[88].appl generatedWSMs 0
scalar HighwayScenario1.node[88].appl receivedWSMs 0
scalar HighwayScenario1.node[88].appl generatedBSMs 51
scalar HighwayScenario1.node[88].appl receivedBSMs 344
scalar HighwayScenario1.node[88].appl generatedWSAs 0
scalar HighwayScenario1.node[88].appl receivedWSAs 0
scalar HighwayScenario1.node[88].appl delayBSM_P1 0.00040626340790988
scalar HighwayScenario1.node[88].appl delayBSM_P2 0
scalar HighwayScenario1.node[88].nic.phy80211p busyTime 0.026711527203245
scalar HighwayScenario1.node[88].nic.mac1609_4 ReceivedUnicastPackets 0
scalar HighwayScenario1.node[88].nic.mac1609_4 ReceivedBroadcasts 344
scalar HighwayScenario1.node[88].nic.mac1609_4 SentPackets 51
scalar HighwayScenario1.node[88].nic.mac1609_4 SNIRLostPackets 0
scalar HighwayScenario1.node[88].nic.mac1609_4 RXTXLostPackets 0
scalar HighwayScenario1.node[88].nic.mac1609_4 TotalLostPackets 0
scalar HighwayScenario1.node[88].nic.mac1609_4 DroppedPacketsInMac 0
scalar HighwayScenario1.node[88].nic.mac1609_4 TooLittleTime 0
scalar HighwayScenario1.node[88].nic.mac1609_4 TimesIntoBackoff 51
scalar HighwayScenario1.node[88].nic.mac1609_4 SlotsBackoff 73
scalar HighwayScenario1.node[88].nic.mac1609_4 NumInternalContention 0
scalar HighwayScenario1.node[88].nic.mac1609_4 totalBusyTime 0.154891
scalar HighwayScenario1.node[88].veinsmobility startTime 175
scalar HighwayScenario1.node[88].veinsmobility totalTime 5
scalar HighwayScenario1.node[88].veinsmobility stopTime 180.04830738332
scalar HighwayScenario1.node[88].veinsmobility minSpeed 33.558590067189
scalar HighwayScenario1.node[88].veinsmobility maxSpeed 34.303961407206
scalar HighwayScenario1.node[88].veinsmobility totalDistance 169.71804233291
scalar HighwayScenario1.node[88].veinsmobility totalCO2Emission 30.290209348672
scalar HighwayScenario1.node[89].appl generatedWSMs 0
scalar HighwayScenario1.node[89].appl receivedWSMs 0
scalar HighwayScenario1.node[89].appl generatedBSMs 31
scalar HighwayScenario1.node[89].appl receivedBSMs 193
scalar HighwayScenario1.node[89].appl generatedWSAs 0
scalar HighwayScenario1.node[89].appl receivedWSAs 0
scalar HighwayScenario1.node[89].appl delayBSM_P1 0.00041147496575648
scalar HighwayScenario1.node[89].appl delayBSM_P2 0
scalar HighwayScenario1.node[89].nic.phy80211p busyTime 0.024819019372483
scalar HighwayScenario1.node[89].nic.mac1609_4 ReceivedUnicastPackets 0
scalar HighwayScenario1.node[89].nic.mac1609_4 ReceivedBroadcasts 193
scalar HighwayScenario1.node[89].nic.mac1609_4 SentPackets 31
scalar HighwayScenario1.node[89].nic.mac1609_4 SNIRLostPackets 0
scalar HighwayScenario1.node[89].nic.mac1609_4 RXTXLostPackets 0
scalar HighwayScenario1.node[89].nic.mac1609_4 TotalLostPackets 0
scalar HighwayScenario1.node[89].nic.mac1609_4 DroppedPacketsInMac 0
scalar HighwayScenario1.node[89].nic.mac1609_4 TooLittleTime 0
scalar HighwayScenario1.node[89].nic.mac1609_4 TimesIntoBackoff 31
scalar HighwayScenario1.node[89].nic.mac1609_4 SlotsBackoff 37
scalar HighwayScenario1.node[89].nic.mac1609_4 NumInternalContention 0
scalar HighwayScenario1.node[89].nic.mac1609_4 totalBusyTime 0.087839
scalar HighwayScenario1.node[89].veinsmobility startTime 177
scalar HighwayScenario1.node[89].veinsmobility totalTime 3
scalar HighwayScenario1.node[89].veinsmobility stopTime 180.04830738332
scalar HighwayScenario1.node[89].veinsmobility minSpeed 30.545883305034
scalar HighwayScenario1.node[89].veinsmobility maxSpeed 31.341793579353
scalar HighwayScenario1.node[89].veinsmobility totalDistance 92.884381029618
scalar HighwayScenario1.node[89].veinsmobility totalCO2Emission 14.256404044455
scalar HighwayScenario1.node[90].appl generatedWSMs 0
scalar HighwayScenario1.node[90].appl receivedWSMs 0
scalar HighwayScenario1.node[90].appl generatedBSMs 10
scalar HighwayScenario1.node[90].appl receivedBSMs 63
scalar HighwayScenario1.node[90].appl generatedWSAs 0
scalar HighwayScenario1.node[90].appl receivedWSAs 0
scalar HighwayScenario1.node[90].appl delayBSM_P1 0.00043479968039683
scalar HighwayScenario1.node[90].appl delayBSM_P2 0
scalar HighwayScenario1.node[90].nic.phy80211p busyTime 0.023557975831185
scalar HighwayScenario1.node[90].nic.mac1609_4 ReceivedUnicastPackets 0
scalar HighwayScenario1.node[90].nic.mac1609_4 ReceivedBroadcasts 63
scalar HighwayScenario1.node[90].nic.mac1609_4 SentPackets 10
scalar HighwayScenario1.node[90].nic.mac1609_4 SNIRLostPackets 0
scalar HighwayScenario1.node[90].nic.mac1609_4 RXTXLostPackets 0
scalar HighwayScenario1.node[90].nic.mac1609_4 TotalLostPackets 0
scalar HighwayScenario1.node[90].nic.mac1609_4 DroppedPacketsInMac 0
scalar HighwayScenario1.node[90].nic.mac1609_4 TooLittleTime 0
scalar HighwayScenario1.node[90].nic.mac1609_4 TimesIntoBackoff 10
scalar HighwayScenario1.node[90].nic.mac1609_4 SlotsBackoff 14
scalar HighwayScenario1.node[90].nic.mac1609_4 NumInternalContention 0
scalar HighwayScenario1.node[90].nic.mac1609_4 totalBusyTime 0.028626
scalar HighwayScenario1.node[90].veinsmobility startTime 179
scalar HighwayScenario1.node[90].veinsmobility totalTime 1
scalar HighwayScenario1.node[90].veinsmobility stopTime 180.04830738332
scalar HighwayScenario1.node[90].veinsmobility minSpeed 33.025863560911
scalar HighwayScenario1.node[90].veinsmobility maxSpeed 33.025863560911
scalar HighwayScenario1.node[90].veinsmobility totalDistance 33.025863560911
scalar HighwayScenario1.node[90].veinsmobility totalCO2Emission 0

