version 2
run Scenario2_722B-0-20180429-00:02:34-4132
attr configname Scenario2_722B
attr datetime 20180429-00:02:34
attr experiment Scenario2_722B
attr inifile omnetpp.ini
attr iterationvars ""
attr iterationvarsf ""
attr measurement ""
attr network HighwayScenario1
attr processid 4132
attr repetition 0
attr replication #0
attr resultdir results
attr runnumber 0
attr seedset 0
param *.ambulanceNode[*].applType "\"AmbulanceAppLayer\""
param *.ambulanceNode[*].appl.messageLength 722
param *.ambulanceNode[*].appl.signDelay 0.0008
param *.ambulanceNode[*].appl.verifyDelay 0.0030
param *.node[*].applType "\"NormalAppLayer\""
param *.node[*].appl.messageLength 622
param *.node[*].appl.headerLength "80 bit"
param *.node[*].appl.sendBeacons true
param *.node[*].appl.dataOnSch false
param *.node[*].appl.beaconInterval 0.1s
param *.node[*].appl.signDelay 0.0008
param *.node[*].appl.verifyDelay 0.0030
param **.debug false
param **.coreDebug false
param *.playgroundSizeX 5500m
param *.playgroundSizeY 500m
param *.playgroundSizeZ 50m
param *.annotations.draw false
param *.obstacles.debug false
param *.manager.updateInterval 1s
param *.manager.host "\"localhost\""
param *.manager.port 9999
param *.manager.autoShutdown true
param *.manager.launchConfig "xmldoc(\"highway.launchd.xml\")"
param *.connectionManager.sendDirect true
param *.connectionManager.maxInterfDist 2600m
param *.connectionManager.drawMaxIntfDist false
param *.**.nic.mac1609_4.useServiceChannel false
param *.**.nic.mac1609_4.txPower 20mW
param *.**.nic.mac1609_4.bitrate 6Mbps
param *.**.nic.phy80211p.sensitivity -89dBm
param *.**.nic.phy80211p.useThermalNoise true
param *.**.nic.phy80211p.thermalNoise -110dBm
param *.**.nic.phy80211p.decider "xmldoc(\"config.xml\")"
param *.**.nic.phy80211p.analogueModels "xmldoc(\"config.xml\")"
param *.**.nic.phy80211p.usePropagationDelay true
param *.**.nic.phy80211p.antenna "xmldoc(\"antenna.xml\", \"/root/Antenna[@id='monopole']\")"
param *.manager.moduleType "\"ambulance=org.car2x.veins.nodes.Car attacker=org.car2x.veins.nodes.Car *=org.car2x.veins.nodes.Car\""
param *.manager.moduleName "\"ambulance=ambulanceNode attacker=attackerNode *=node\""
param *.node[*].veinsmobilityType.debug true
param *.node[*].veinsmobility.x 0
param *.node[*].veinsmobility.y 0
param *.node[*].veinsmobility.z 1.895
param *.ambulanceNode[*].veinsmobilityType.debug true
param *.ambulanceNode[*].veinsmobility.x 0
param *.ambulanceNode[*].veinsmobility.y 0
param *.ambulanceNode[*].veinsmobility.z 1.895
param *.attackerNode[*].veinsmobilityType.debug true
param *.attackerNode[*].veinsmobility.x 0
param *.attackerNode[*].veinsmobility.y 0
param *.attackerNode[*].veinsmobility.z 1.895

scalar HighwayScenario1.node[0].appl generatedWSMs 0
scalar HighwayScenario1.node[0].appl receivedWSMs 0
scalar HighwayScenario1.node[0].appl generatedBSMs 1500
scalar HighwayScenario1.node[0].appl receivedBSMs 4500
scalar HighwayScenario1.node[0].appl generatedWSAs 0
scalar HighwayScenario1.node[0].appl receivedWSAs 0
scalar HighwayScenario1.node[0].appl delayBSM_P1 0.000888080660724
scalar HighwayScenario1.node[0].appl delayBSM_P2 0
scalar HighwayScenario1.node[0].nic.phy80211p busyTime 0.0264
scalar HighwayScenario1.node[0].nic.mac1609_4 ReceivedUnicastPackets 0
scalar HighwayScenario1.node[0].nic.mac1609_4 ReceivedBroadcasts 4500
scalar HighwayScenario1.node[0].nic.mac1609_4 SentPackets 1500
scalar HighwayScenario1.node[0].nic.mac1609_4 SNIRLostPackets 0
scalar HighwayScenario1.node[0].nic.mac1609_4 RXTXLostPackets 0
scalar HighwayScenario1.node[0].nic.mac1609_4 TotalLostPackets 0
scalar HighwayScenario1.node[0].nic.mac1609_4 DroppedPacketsInMac 0
scalar HighwayScenario1.node[0].nic.mac1609_4 TooLittleTime 0
scalar HighwayScenario1.node[0].nic.mac1609_4 TimesIntoBackoff 1500
scalar HighwayScenario1.node[0].nic.mac1609_4 SlotsBackoff 2261
scalar HighwayScenario1.node[0].nic.mac1609_4 NumInternalContention 0
scalar HighwayScenario1.node[0].nic.mac1609_4 totalBusyTime 5.2815
scalar HighwayScenario1.node[0].veinsmobility startTime 1
scalar HighwayScenario1.node[0].veinsmobility totalTime 149
scalar HighwayScenario1.node[0].veinsmobility stopTime 151
scalar HighwayScenario1.node[0].veinsmobility minSpeed 32.861004413097
scalar HighwayScenario1.node[0].veinsmobility maxSpeed 34.081829101013
scalar HighwayScenario1.node[0].veinsmobility totalDistance 4985.5231794157
scalar HighwayScenario1.node[0].veinsmobility totalCO2Emission 935.5999603589
scalar HighwayScenario1.node[1].appl generatedWSMs 0
scalar HighwayScenario1.node[1].appl receivedWSMs 0
scalar HighwayScenario1.node[1].appl generatedBSMs 1500
scalar HighwayScenario1.node[1].appl receivedBSMs 6000
scalar HighwayScenario1.node[1].appl generatedWSAs 0
scalar HighwayScenario1.node[1].appl receivedWSAs 0
scalar HighwayScenario1.node[1].appl delayBSM_P1 0.0008881635037885
scalar HighwayScenario1.node[1].appl delayBSM_P2 0
scalar HighwayScenario1.node[1].nic.phy80211p busyTime 0.035200000000004
scalar HighwayScenario1.node[1].nic.mac1609_4 ReceivedUnicastPackets 0
scalar HighwayScenario1.node[1].nic.mac1609_4 ReceivedBroadcasts 6000
scalar HighwayScenario1.node[1].nic.mac1609_4 SentPackets 1500
scalar HighwayScenario1.node[1].nic.mac1609_4 SNIRLostPackets 0
scalar HighwayScenario1.node[1].nic.mac1609_4 RXTXLostPackets 0
scalar HighwayScenario1.node[1].nic.mac1609_4 TotalLostPackets 0
scalar HighwayScenario1.node[1].nic.mac1609_4 DroppedPacketsInMac 0
scalar HighwayScenario1.node[1].nic.mac1609_4 TooLittleTime 0
scalar HighwayScenario1.node[1].nic.mac1609_4 TimesIntoBackoff 1500
scalar HighwayScenario1.node[1].nic.mac1609_4 SlotsBackoff 2280
scalar HighwayScenario1.node[1].nic.mac1609_4 NumInternalContention 0
scalar HighwayScenario1.node[1].nic.mac1609_4 totalBusyTime 6.6015
scalar HighwayScenario1.node[1].veinsmobility startTime 3
scalar HighwayScenario1.node[1].veinsmobility totalTime 149
scalar HighwayScenario1.node[1].veinsmobility stopTime 153
scalar HighwayScenario1.node[1].veinsmobility minSpeed 32.789757600441
scalar HighwayScenario1.node[1].veinsmobility maxSpeed 34.014829106492
scalar HighwayScenario1.node[1].veinsmobility totalDistance 4972.8098399815
scalar HighwayScenario1.node[1].veinsmobility totalCO2Emission 928.75884392722
scalar HighwayScenario1.node[2].appl generatedWSMs 0
scalar HighwayScenario1.node[2].appl receivedWSMs 0
scalar HighwayScenario1.node[2].appl generatedBSMs 1510
scalar HighwayScenario1.node[2].appl receivedBSMs 7840
scalar HighwayScenario1.node[2].appl generatedWSAs 0
scalar HighwayScenario1.node[2].appl receivedWSAs 0
scalar HighwayScenario1.node[2].appl delayBSM_P1 0.0008882452830236
scalar HighwayScenario1.node[2].appl delayBSM_P2 0
scalar HighwayScenario1.node[2].nic.phy80211p busyTime 0.045690066225175
scalar HighwayScenario1.node[2].nic.mac1609_4 ReceivedUnicastPackets 0
scalar HighwayScenario1.node[2].nic.mac1609_4 ReceivedBroadcasts 7840
scalar HighwayScenario1.node[2].nic.mac1609_4 SentPackets 1510
scalar HighwayScenario1.node[2].nic.mac1609_4 SNIRLostPackets 0
scalar HighwayScenario1.node[2].nic.mac1609_4 RXTXLostPackets 0
scalar HighwayScenario1.node[2].nic.mac1609_4 TotalLostPackets 0
scalar HighwayScenario1.node[2].nic.mac1609_4 DroppedPacketsInMac 0
scalar HighwayScenario1.node[2].nic.mac1609_4 TooLittleTime 0
scalar HighwayScenario1.node[2].nic.mac1609_4 TimesIntoBackoff 1510
scalar HighwayScenario1.node[2].nic.mac1609_4 SlotsBackoff 2290
scalar HighwayScenario1.node[2].nic.mac1609_4 NumInternalContention 0
scalar HighwayScenario1.node[2].nic.mac1609_4 totalBusyTime 8.22951
scalar HighwayScenario1.node[2].veinsmobility startTime 5
scalar HighwayScenario1.node[2].veinsmobility totalTime 150
scalar HighwayScenario1.node[2].veinsmobility stopTime 156
scalar HighwayScenario1.node[2].veinsmobility minSpeed 32.558218552118
scalar HighwayScenario1.node[2].veinsmobility maxSpeed 33.785845560165
scalar HighwayScenario1.node[2].veinsmobility totalDistance 4972.8174753851
scalar HighwayScenario1.node[2].veinsmobility totalCO2Emission 917.60802619557
scalar HighwayScenario1.node[6].appl generatedWSMs 0
scalar HighwayScenario1.node[6].appl receivedWSMs 0
scalar HighwayScenario1.node[6].appl generatedBSMs 1480
scalar HighwayScenario1.node[6].appl receivedBSMs 12670
scalar HighwayScenario1.node[6].appl generatedWSAs 0
scalar HighwayScenario1.node[6].appl receivedWSAs 0
scalar HighwayScenario1.node[6].appl delayBSM_P1 0.0009269015397884
scalar HighwayScenario1.node[6].appl delayBSM_P2 0
scalar HighwayScenario1.node[6].nic.phy80211p busyTime 0.075335135135159
scalar HighwayScenario1.node[6].nic.mac1609_4 ReceivedUnicastPackets 0
scalar HighwayScenario1.node[6].nic.mac1609_4 ReceivedBroadcasts 12670
scalar HighwayScenario1.node[6].nic.mac1609_4 SentPackets 1480
scalar HighwayScenario1.node[6].nic.mac1609_4 SNIRLostPackets 0
scalar HighwayScenario1.node[6].nic.mac1609_4 RXTXLostPackets 0
scalar HighwayScenario1.node[6].nic.mac1609_4 TotalLostPackets 0
scalar HighwayScenario1.node[6].nic.mac1609_4 DroppedPacketsInMac 0
scalar HighwayScenario1.node[6].nic.mac1609_4 TooLittleTime 0
scalar HighwayScenario1.node[6].nic.mac1609_4 TimesIntoBackoff 1480
scalar HighwayScenario1.node[6].nic.mac1609_4 SlotsBackoff 2190
scalar HighwayScenario1.node[6].nic.mac1609_4 NumInternalContention 0
scalar HighwayScenario1.node[6].nic.mac1609_4 totalBusyTime 12.45348
scalar HighwayScenario1.node[6].veinsmobility startTime 13
scalar HighwayScenario1.node[6].veinsmobility totalTime 147
scalar HighwayScenario1.node[6].veinsmobility stopTime 161
scalar HighwayScenario1.node[6].veinsmobility minSpeed 30.203244476682
scalar HighwayScenario1.node[6].veinsmobility maxSpeed 36.035089479992
scalar HighwayScenario1.node[6].veinsmobility totalDistance 4973.01568101
scalar HighwayScenario1.node[6].veinsmobility totalCO2Emission 990.83452884228
scalar HighwayScenario1.node[5].appl generatedWSMs 0
scalar HighwayScenario1.node[5].appl receivedWSMs 0
scalar HighwayScenario1.node[5].appl generatedBSMs 1600
scalar HighwayScenario1.node[5].appl receivedBSMs 13580
scalar HighwayScenario1.node[5].appl generatedWSAs 0
scalar HighwayScenario1.node[5].appl receivedWSAs 0
scalar HighwayScenario1.node[5].appl delayBSM_P1 0.00095831396012187
scalar HighwayScenario1.node[5].appl delayBSM_P2 0
scalar HighwayScenario1.node[5].nic.phy80211p busyTime 0.074690000000024
scalar HighwayScenario1.node[5].nic.mac1609_4 ReceivedUnicastPackets 0
scalar HighwayScenario1.node[5].nic.mac1609_4 ReceivedBroadcasts 13580
scalar HighwayScenario1.node[5].nic.mac1609_4 SentPackets 1600
scalar HighwayScenario1.node[5].nic.mac1609_4 SNIRLostPackets 0
scalar HighwayScenario1.node[5].nic.mac1609_4 RXTXLostPackets 0
scalar HighwayScenario1.node[5].nic.mac1609_4 TotalLostPackets 0
scalar HighwayScenario1.node[5].nic.mac1609_4 DroppedPacketsInMac 0
scalar HighwayScenario1.node[5].nic.mac1609_4 TooLittleTime 0
scalar HighwayScenario1.node[5].nic.mac1609_4 TimesIntoBackoff 1600
scalar HighwayScenario1.node[5].nic.mac1609_4 SlotsBackoff 2426
scalar HighwayScenario1.node[5].nic.mac1609_4 NumInternalContention 0
scalar HighwayScenario1.node[5].nic.mac1609_4 totalBusyTime 13.36
scalar HighwayScenario1.node[5].veinsmobility startTime 11
scalar HighwayScenario1.node[5].veinsmobility totalTime 159
scalar HighwayScenario1.node[5].veinsmobility stopTime 171
scalar HighwayScenario1.node[5].veinsmobility minSpeed 29.713738642236
scalar HighwayScenario1.node[5].veinsmobility maxSpeed 31.928955400918
scalar HighwayScenario1.node[5].veinsmobility totalDistance 4967.8819487356
scalar HighwayScenario1.node[5].veinsmobility totalCO2Emission 900.74029667534
scalar HighwayScenario1.node[3].appl generatedWSMs 0
scalar HighwayScenario1.node[3].appl receivedWSMs 0
scalar HighwayScenario1.node[3].appl generatedBSMs 1640
scalar HighwayScenario1.node[3].appl receivedBSMs 13444
scalar HighwayScenario1.node[3].appl generatedWSAs 0
scalar HighwayScenario1.node[3].appl receivedWSAs 0
scalar HighwayScenario1.node[3].appl delayBSM_P1 0.00094174574635666
scalar HighwayScenario1.node[3].appl delayBSM_P2 0
scalar HighwayScenario1.node[3].nic.phy80211p busyTime 0.072170731707341
scalar HighwayScenario1.node[3].nic.mac1609_4 ReceivedUnicastPackets 0
scalar HighwayScenario1.node[3].nic.mac1609_4 ReceivedBroadcasts 13444
scalar HighwayScenario1.node[3].nic.mac1609_4 SentPackets 1640
scalar HighwayScenario1.node[3].nic.mac1609_4 SNIRLostPackets 6
scalar HighwayScenario1.node[3].nic.mac1609_4 RXTXLostPackets 0
scalar HighwayScenario1.node[3].nic.mac1609_4 TotalLostPackets 6
scalar HighwayScenario1.node[3].nic.mac1609_4 DroppedPacketsInMac 0
scalar HighwayScenario1.node[3].nic.mac1609_4 TooLittleTime 0
scalar HighwayScenario1.node[3].nic.mac1609_4 TimesIntoBackoff 1640
scalar HighwayScenario1.node[3].nic.mac1609_4 SlotsBackoff 2515
scalar HighwayScenario1.node[3].nic.mac1609_4 NumInternalContention 0
scalar HighwayScenario1.node[3].nic.mac1609_4 totalBusyTime 13.28084
scalar HighwayScenario1.node[3].veinsmobility startTime 7
scalar HighwayScenario1.node[3].veinsmobility totalTime 163
scalar HighwayScenario1.node[3].veinsmobility stopTime 171
scalar HighwayScenario1.node[3].veinsmobility minSpeed 29.896752865458
scalar HighwayScenario1.node[3].veinsmobility maxSpeed 31.130142999751
scalar HighwayScenario1.node[3].veinsmobility totalDistance 4974.4818835428
scalar HighwayScenario1.node[3].veinsmobility totalCO2Emission 874.92844246993
scalar HighwayScenario1.node[9].appl generatedWSMs 0
scalar HighwayScenario1.node[9].appl receivedWSMs 0
scalar HighwayScenario1.node[9].appl generatedBSMs 1540
scalar HighwayScenario1.node[9].appl receivedBSMs 13420
scalar HighwayScenario1.node[9].appl generatedWSAs 0
scalar HighwayScenario1.node[9].appl receivedWSAs 0
scalar HighwayScenario1.node[9].appl delayBSM_P1 0.00098205346361915
scalar HighwayScenario1.node[9].appl delayBSM_P2 0
scalar HighwayScenario1.node[9].nic.phy80211p busyTime 0.082114285714313
scalar HighwayScenario1.node[9].nic.mac1609_4 ReceivedUnicastPackets 0
scalar HighwayScenario1.node[9].nic.mac1609_4 ReceivedBroadcasts 13420
scalar HighwayScenario1.node[9].nic.mac1609_4 SentPackets 1540
scalar HighwayScenario1.node[9].nic.mac1609_4 SNIRLostPackets 950
scalar HighwayScenario1.node[9].nic.mac1609_4 RXTXLostPackets 0
scalar HighwayScenario1.node[9].nic.mac1609_4 TotalLostPackets 950
scalar HighwayScenario1.node[9].nic.mac1609_4 DroppedPacketsInMac 0
scalar HighwayScenario1.node[9].nic.mac1609_4 TooLittleTime 0
scalar HighwayScenario1.node[9].nic.mac1609_4 TimesIntoBackoff 1540
scalar HighwayScenario1.node[9].nic.mac1609_4 SlotsBackoff 2375
scalar HighwayScenario1.node[9].nic.mac1609_4 NumInternalContention 0
scalar HighwayScenario1.node[9].nic.mac1609_4 totalBusyTime 13.65034
scalar HighwayScenario1.node[9].veinsmobility startTime 19
scalar HighwayScenario1.node[9].veinsmobility totalTime 153
scalar HighwayScenario1.node[9].veinsmobility stopTime 173
scalar HighwayScenario1.node[9].veinsmobility minSpeed 30.37993461178
scalar HighwayScenario1.node[9].veinsmobility maxSpeed 33.710887097781
scalar HighwayScenario1.node[9].veinsmobility totalDistance 4990.0083315423
scalar HighwayScenario1.node[9].veinsmobility totalCO2Emission 922.49631652614
scalar HighwayScenario1.node[7].appl generatedWSMs 0
scalar HighwayScenario1.node[7].appl receivedWSMs 0
scalar HighwayScenario1.node[7].appl generatedBSMs 1610
scalar HighwayScenario1.node[7].appl receivedBSMs 15729
scalar HighwayScenario1.node[7].appl generatedWSAs 0
scalar HighwayScenario1.node[7].appl receivedWSAs 0
scalar HighwayScenario1.node[7].appl delayBSM_P1 0.0009869935052929
scalar HighwayScenario1.node[7].appl delayBSM_P2 0
scalar HighwayScenario1.node[7].nic.phy80211p busyTime 0.088710559006243
scalar HighwayScenario1.node[7].nic.mac1609_4 ReceivedUnicastPackets 0
scalar HighwayScenario1.node[7].nic.mac1609_4 ReceivedBroadcasts 15729
scalar HighwayScenario1.node[7].nic.mac1609_4 SentPackets 1610
scalar HighwayScenario1.node[7].nic.mac1609_4 SNIRLostPackets 501
scalar HighwayScenario1.node[7].nic.mac1609_4 RXTXLostPackets 0
scalar HighwayScenario1.node[7].nic.mac1609_4 TotalLostPackets 501
scalar HighwayScenario1.node[7].nic.mac1609_4 DroppedPacketsInMac 0
scalar HighwayScenario1.node[7].nic.mac1609_4 TooLittleTime 0
scalar HighwayScenario1.node[7].nic.mac1609_4 TimesIntoBackoff 1610
scalar HighwayScenario1.node[7].nic.mac1609_4 SlotsBackoff 2376
scalar HighwayScenario1.node[7].nic.mac1609_4 NumInternalContention 0
scalar HighwayScenario1.node[7].nic.mac1609_4 totalBusyTime 15.70081
scalar HighwayScenario1.node[7].veinsmobility startTime 15
scalar HighwayScenario1.node[7].veinsmobility totalTime 160
scalar HighwayScenario1.node[7].veinsmobility stopTime 176
scalar HighwayScenario1.node[7].veinsmobility minSpeed 29.392652640304
scalar HighwayScenario1.node[7].veinsmobility maxSpeed 31.799890142991
scalar HighwayScenario1.node[7].veinsmobility totalDistance 4983.4684921374
scalar HighwayScenario1.node[7].veinsmobility totalCO2Emission 896.70762434813
scalar HighwayScenario1.node[16].appl generatedWSMs 0
scalar HighwayScenario1.node[16].appl receivedWSMs 0
scalar HighwayScenario1.node[16].appl generatedBSMs 1440
scalar HighwayScenario1.node[16].appl receivedBSMs 15376
scalar HighwayScenario1.node[16].appl generatedWSAs 0
scalar HighwayScenario1.node[16].appl receivedWSAs 0
scalar HighwayScenario1.node[16].appl delayBSM_P1 0.00099587933358052
scalar HighwayScenario1.node[16].appl delayBSM_P2 0
scalar HighwayScenario1.node[16].nic.phy80211p busyTime 0.10340000000004
scalar HighwayScenario1.node[16].nic.mac1609_4 ReceivedUnicastPackets 0
scalar HighwayScenario1.node[16].nic.mac1609_4 ReceivedBroadcasts 15376
scalar HighwayScenario1.node[16].nic.mac1609_4 SentPackets 1440
scalar HighwayScenario1.node[16].nic.mac1609_4 SNIRLostPackets 1544
scalar HighwayScenario1.node[16].nic.mac1609_4 RXTXLostPackets 0
scalar HighwayScenario1.node[16].nic.mac1609_4 TotalLostPackets 1544
scalar HighwayScenario1.node[16].nic.mac1609_4 DroppedPacketsInMac 0
scalar HighwayScenario1.node[16].nic.mac1609_4 TooLittleTime 0
scalar HighwayScenario1.node[16].nic.mac1609_4 TimesIntoBackoff 1440
scalar HighwayScenario1.node[16].nic.mac1609_4 SlotsBackoff 2098
scalar HighwayScenario1.node[16].nic.mac1609_4 NumInternalContention 0
scalar HighwayScenario1.node[16].nic.mac1609_4 totalBusyTime 15.41024
scalar HighwayScenario1.node[16].veinsmobility startTime 33
scalar HighwayScenario1.node[16].veinsmobility totalTime 143
scalar HighwayScenario1.node[16].veinsmobility stopTime 177
scalar HighwayScenario1.node[16].veinsmobility minSpeed 30.415606287603
scalar HighwayScenario1.node[16].veinsmobility maxSpeed 35.786368328478
scalar HighwayScenario1.node[16].veinsmobility totalDistance 4970.2603308654
scalar HighwayScenario1.node[16].veinsmobility totalCO2Emission 938.23517545427
scalar HighwayScenario1.node[4].appl generatedWSMs 0
scalar HighwayScenario1.node[4].appl receivedWSMs 0
scalar HighwayScenario1.node[4].appl generatedBSMs 1680
scalar HighwayScenario1.node[4].appl receivedBSMs 15220
scalar HighwayScenario1.node[4].appl generatedWSAs 0
scalar HighwayScenario1.node[4].appl receivedWSAs 0
scalar HighwayScenario1.node[4].appl delayBSM_P1 0.00099269787794244
scalar HighwayScenario1.node[4].appl delayBSM_P2 0
scalar HighwayScenario1.node[4].nic.phy80211p busyTime 0.079723809523837
scalar HighwayScenario1.node[4].nic.mac1609_4 ReceivedUnicastPackets 0
scalar HighwayScenario1.node[4].nic.mac1609_4 ReceivedBroadcasts 15220
scalar HighwayScenario1.node[4].nic.mac1609_4 SentPackets 1680
scalar HighwayScenario1.node[4].nic.mac1609_4 SNIRLostPackets 0
scalar HighwayScenario1.node[4].nic.mac1609_4 RXTXLostPackets 0
scalar HighwayScenario1.node[4].nic.mac1609_4 TotalLostPackets 0
scalar HighwayScenario1.node[4].nic.mac1609_4 DroppedPacketsInMac 0
scalar HighwayScenario1.node[4].nic.mac1609_4 TooLittleTime 0
scalar HighwayScenario1.node[4].nic.mac1609_4 TimesIntoBackoff 1680
scalar HighwayScenario1.node[4].nic.mac1609_4 SlotsBackoff 2506
scalar HighwayScenario1.node[4].nic.mac1609_4 NumInternalContention 0
scalar HighwayScenario1.node[4].nic.mac1609_4 totalBusyTime 14.87368
scalar HighwayScenario1.node[4].veinsmobility startTime 9
scalar HighwayScenario1.node[4].veinsmobility totalTime 167
scalar HighwayScenario1.node[4].veinsmobility stopTime 177
scalar HighwayScenario1.node[4].veinsmobility minSpeed 28.930550184644
scalar HighwayScenario1.node[4].veinsmobility maxSpeed 30.550408622643
scalar HighwayScenario1.node[4].veinsmobility totalDistance 4994.222080578
scalar HighwayScenario1.node[4].veinsmobility totalCO2Emission 866.53719961542
scalar HighwayScenario1.node[12].appl generatedWSMs 0
scalar HighwayScenario1.node[12].appl receivedWSMs 0
scalar HighwayScenario1.node[12].appl generatedBSMs 1530
scalar HighwayScenario1.node[12].appl receivedBSMs 17097
scalar HighwayScenario1.node[12].appl generatedWSAs 0
scalar HighwayScenario1.node[12].appl receivedWSAs 0
scalar HighwayScenario1.node[12].appl delayBSM_P1 0.00098350818070334
scalar HighwayScenario1.node[12].appl delayBSM_P2 0
scalar HighwayScenario1.node[12].nic.phy80211p busyTime 0.11129411764709
scalar HighwayScenario1.node[12].nic.mac1609_4 ReceivedUnicastPackets 0
scalar HighwayScenario1.node[12].nic.mac1609_4 ReceivedBroadcasts 17097
scalar HighwayScenario1.node[12].nic.mac1609_4 SentPackets 1530
scalar HighwayScenario1.node[12].nic.mac1609_4 SNIRLostPackets 2253
scalar HighwayScenario1.node[12].nic.mac1609_4 RXTXLostPackets 0
scalar HighwayScenario1.node[12].nic.mac1609_4 TotalLostPackets 2253
scalar HighwayScenario1.node[12].nic.mac1609_4 DroppedPacketsInMac 0
scalar HighwayScenario1.node[12].nic.mac1609_4 TooLittleTime 0
scalar HighwayScenario1.node[12].nic.mac1609_4 TimesIntoBackoff 1530
scalar HighwayScenario1.node[12].nic.mac1609_4 SlotsBackoff 2272
scalar HighwayScenario1.node[12].nic.mac1609_4 NumInternalContention 0
scalar HighwayScenario1.node[12].nic.mac1609_4 totalBusyTime 17.45193
scalar HighwayScenario1.node[12].veinsmobility startTime 25
scalar HighwayScenario1.node[12].veinsmobility totalTime 152
scalar HighwayScenario1.node[12].veinsmobility stopTime 178
scalar HighwayScenario1.node[12].veinsmobility minSpeed 29.141684841781
scalar HighwayScenario1.node[12].veinsmobility maxSpeed 34.599351722425
scalar HighwayScenario1.node[12].veinsmobility totalDistance 4985.0996719025
scalar HighwayScenario1.node[12].veinsmobility totalCO2Emission 979.1089846283
scalar HighwayScenario1.ambulanceNode[36].appl generatedWSMs 109
scalar HighwayScenario1.ambulanceNode[36].appl receivedWSMs 0
scalar HighwayScenario1.ambulanceNode[36].appl generatedBSMs 0
scalar HighwayScenario1.ambulanceNode[36].appl receivedBSMs 7466
scalar HighwayScenario1.ambulanceNode[36].appl generatedWSAs 0
scalar HighwayScenario1.ambulanceNode[36].appl receivedWSAs 0
scalar HighwayScenario1.ambulanceNode[36].nic.phy80211p busyTime 0.065776396864643
scalar HighwayScenario1.ambulanceNode[36].nic.mac1609_4 ReceivedUnicastPackets 0
scalar HighwayScenario1.ambulanceNode[36].nic.mac1609_4 ReceivedBroadcasts 7466
scalar HighwayScenario1.ambulanceNode[36].nic.mac1609_4 SentPackets 109
scalar HighwayScenario1.ambulanceNode[36].nic.mac1609_4 SNIRLostPackets 660
scalar HighwayScenario1.ambulanceNode[36].nic.mac1609_4 RXTXLostPackets 0
scalar HighwayScenario1.ambulanceNode[36].nic.mac1609_4 TotalLostPackets 660
scalar HighwayScenario1.ambulanceNode[36].nic.mac1609_4 DroppedPacketsInMac 0
scalar HighwayScenario1.ambulanceNode[36].nic.mac1609_4 TooLittleTime 0
scalar HighwayScenario1.ambulanceNode[36].nic.mac1609_4 TimesIntoBackoff 109
scalar HighwayScenario1.ambulanceNode[36].nic.mac1609_4 SlotsBackoff 169
scalar HighwayScenario1.ambulanceNode[36].nic.mac1609_4 NumInternalContention 0
scalar HighwayScenario1.ambulanceNode[36].nic.mac1609_4 totalBusyTime 7.164061
scalar HighwayScenario1.ambulanceNode[36].veinsmobility startTime 72
scalar HighwayScenario1.ambulanceNode[36].veinsmobility totalTime 108
scalar HighwayScenario1.ambulanceNode[36].veinsmobility stopTime 180.71498502292
scalar HighwayScenario1.ambulanceNode[36].veinsmobility minSpeed 28.190659158669
scalar HighwayScenario1.ambulanceNode[36].veinsmobility maxSpeed 49.938699318562
scalar HighwayScenario1.ambulanceNode[36].veinsmobility totalDistance 4590.2021845723
scalar HighwayScenario1.ambulanceNode[36].veinsmobility totalCO2Emission 1617.7511013636
scalar HighwayScenario1.node[10].appl generatedWSMs 0
scalar HighwayScenario1.node[10].appl receivedWSMs 10
scalar HighwayScenario1.node[10].appl generatedBSMs 1597
scalar HighwayScenario1.node[10].appl receivedBSMs 18498
scalar HighwayScenario1.node[10].appl generatedWSAs 0
scalar HighwayScenario1.node[10].appl receivedWSAs 0
scalar HighwayScenario1.node[10].appl delayBSM_P1 0.0009331548426652
scalar HighwayScenario1.node[10].appl delayBSM_P2 0.0010142184797
scalar HighwayScenario1.node[10].nic.phy80211p busyTime 0.10644751960853
scalar HighwayScenario1.node[10].nic.mac1609_4 ReceivedUnicastPackets 0
scalar HighwayScenario1.node[10].nic.mac1609_4 ReceivedBroadcasts 18508
scalar HighwayScenario1.node[10].nic.mac1609_4 SentPackets 1597
scalar HighwayScenario1.node[10].nic.mac1609_4 SNIRLostPackets 809
scalar HighwayScenario1.node[10].nic.mac1609_4 RXTXLostPackets 0
scalar HighwayScenario1.node[10].nic.mac1609_4 TotalLostPackets 809
scalar HighwayScenario1.node[10].nic.mac1609_4 DroppedPacketsInMac 0
scalar HighwayScenario1.node[10].nic.mac1609_4 TooLittleTime 0
scalar HighwayScenario1.node[10].nic.mac1609_4 TimesIntoBackoff 3037
scalar HighwayScenario1.node[10].nic.mac1609_4 SlotsBackoff 4536
scalar HighwayScenario1.node[10].nic.mac1609_4 NumInternalContention 0
scalar HighwayScenario1.node[10].nic.mac1609_4 totalBusyTime 18.117821
scalar HighwayScenario1.node[10].veinsmobility startTime 21
scalar HighwayScenario1.node[10].veinsmobility totalTime 159
scalar HighwayScenario1.node[10].veinsmobility stopTime 180.71498502292
scalar HighwayScenario1.node[10].veinsmobility minSpeed 28.861630264708
scalar HighwayScenario1.node[10].veinsmobility maxSpeed 30.299298777622
scalar HighwayScenario1.node[10].veinsmobility totalDistance 4719.4994176683
scalar HighwayScenario1.node[10].veinsmobility totalCO2Emission 803.83626706281
scalar HighwayScenario1.node[11].appl generatedWSMs 0
scalar HighwayScenario1.node[11].appl receivedWSMs 14
scalar HighwayScenario1.node[11].appl generatedBSMs 1577
scalar HighwayScenario1.node[11].appl receivedBSMs 16177
scalar HighwayScenario1.node[11].appl generatedWSAs 0
scalar HighwayScenario1.node[11].appl receivedWSAs 0
scalar HighwayScenario1.node[11].appl delayBSM_P1 0.00099027430434963
scalar HighwayScenario1.node[11].appl delayBSM_P2 0.0010147062549286
scalar HighwayScenario1.node[11].nic.phy80211p busyTime 0.095423272543303
scalar HighwayScenario1.node[11].nic.mac1609_4 ReceivedUnicastPackets 0
scalar HighwayScenario1.node[11].nic.mac1609_4 ReceivedBroadcasts 16191
scalar HighwayScenario1.node[11].nic.mac1609_4 SentPackets 1577
scalar HighwayScenario1.node[11].nic.mac1609_4 SNIRLostPackets 908
scalar HighwayScenario1.node[11].nic.mac1609_4 RXTXLostPackets 0
scalar HighwayScenario1.node[11].nic.mac1609_4 TotalLostPackets 908
scalar HighwayScenario1.node[11].nic.mac1609_4 DroppedPacketsInMac 0
scalar HighwayScenario1.node[11].nic.mac1609_4 TooLittleTime 0
scalar HighwayScenario1.node[11].nic.mac1609_4 TimesIntoBackoff 1577
scalar HighwayScenario1.node[11].nic.mac1609_4 SlotsBackoff 2336
scalar HighwayScenario1.node[11].nic.mac1609_4 NumInternalContention 0
scalar HighwayScenario1.node[11].nic.mac1609_4 totalBusyTime 16.043017
scalar HighwayScenario1.node[11].veinsmobility startTime 23
scalar HighwayScenario1.node[11].veinsmobility totalTime 157
scalar HighwayScenario1.node[11].veinsmobility stopTime 180.71498502292
scalar HighwayScenario1.node[11].veinsmobility minSpeed 28.579016221015
scalar HighwayScenario1.node[11].veinsmobility maxSpeed 30.639867577736
scalar HighwayScenario1.node[11].veinsmobility totalDistance 4680.5645223397
scalar HighwayScenario1.node[11].veinsmobility totalCO2Emission 854.95327544034
scalar HighwayScenario1.node[13].appl generatedWSMs 0
scalar HighwayScenario1.node[13].appl receivedWSMs 10
scalar HighwayScenario1.node[13].appl generatedBSMs 1537
scalar HighwayScenario1.node[13].appl receivedBSMs 16209
scalar HighwayScenario1.node[13].appl generatedWSAs 0
scalar HighwayScenario1.node[13].appl receivedWSAs 0
scalar HighwayScenario1.node[13].appl delayBSM_P1 0.0009892726659855
scalar HighwayScenario1.node[13].appl delayBSM_P2 0.0010144239884
scalar HighwayScenario1.node[13].nic.phy80211p busyTime 0.098635848663319
scalar HighwayScenario1.node[13].nic.mac1609_4 ReceivedUnicastPackets 0
scalar HighwayScenario1.node[13].nic.mac1609_4 ReceivedBroadcasts 16219
scalar HighwayScenario1.node[13].nic.mac1609_4 SentPackets 1537
scalar HighwayScenario1.node[13].nic.mac1609_4 SNIRLostPackets 1008
scalar HighwayScenario1.node[13].nic.mac1609_4 RXTXLostPackets 0
scalar HighwayScenario1.node[13].nic.mac1609_4 TotalLostPackets 1008
scalar HighwayScenario1.node[13].nic.mac1609_4 DroppedPacketsInMac 0
scalar HighwayScenario1.node[13].nic.mac1609_4 TooLittleTime 0
scalar HighwayScenario1.node[13].nic.mac1609_4 TimesIntoBackoff 1587
scalar HighwayScenario1.node[13].nic.mac1609_4 SlotsBackoff 2454
scalar HighwayScenario1.node[13].nic.mac1609_4 NumInternalContention 0
scalar HighwayScenario1.node[13].nic.mac1609_4 totalBusyTime 16.075905
scalar HighwayScenario1.node[13].veinsmobility startTime 27
scalar HighwayScenario1.node[13].veinsmobility totalTime 153
scalar HighwayScenario1.node[13].veinsmobility stopTime 180.71498502292
scalar HighwayScenario1.node[13].veinsmobility minSpeed 28.32464243223
scalar HighwayScenario1.node[13].veinsmobility maxSpeed 32.133856886756
scalar HighwayScenario1.node[13].veinsmobility totalDistance 4790.3139417177
scalar HighwayScenario1.node[13].veinsmobility totalCO2Emission 884.51479113579
scalar HighwayScenario1.node[14].appl generatedWSMs 0
scalar HighwayScenario1.node[14].appl receivedWSMs 15
scalar HighwayScenario1.node[14].appl generatedBSMs 1517
scalar HighwayScenario1.node[14].appl receivedBSMs 13771
scalar HighwayScenario1.node[14].appl generatedWSAs 0
scalar HighwayScenario1.node[14].appl receivedWSAs 0
scalar HighwayScenario1.node[14].appl delayBSM_P1 0.0010106557905654
scalar HighwayScenario1.node[14].appl delayBSM_P2 0.0010148027714667
scalar HighwayScenario1.node[14].nic.phy80211p busyTime 0.086565582154064
scalar HighwayScenario1.node[14].nic.mac1609_4 ReceivedUnicastPackets 0
scalar HighwayScenario1.node[14].nic.mac1609_4 ReceivedBroadcasts 13786
scalar HighwayScenario1.node[14].nic.mac1609_4 SentPackets 1517
scalar HighwayScenario1.node[14].nic.mac1609_4 SNIRLostPackets 1135
scalar HighwayScenario1.node[14].nic.mac1609_4 RXTXLostPackets 0
scalar HighwayScenario1.node[14].nic.mac1609_4 TotalLostPackets 1135
scalar HighwayScenario1.node[14].nic.mac1609_4 DroppedPacketsInMac 0
scalar HighwayScenario1.node[14].nic.mac1609_4 TooLittleTime 0
scalar HighwayScenario1.node[14].nic.mac1609_4 TimesIntoBackoff 1517
scalar HighwayScenario1.node[14].nic.mac1609_4 SlotsBackoff 2277
scalar HighwayScenario1.node[14].nic.mac1609_4 NumInternalContention 0
scalar HighwayScenario1.node[14].nic.mac1609_4 totalBusyTime 13.897773
scalar HighwayScenario1.node[14].veinsmobility startTime 29
scalar HighwayScenario1.node[14].veinsmobility totalTime 151
scalar HighwayScenario1.node[14].veinsmobility stopTime 180.71498502292
scalar HighwayScenario1.node[14].veinsmobility minSpeed 8.7350468427699
scalar HighwayScenario1.node[14].veinsmobility maxSpeed 32.036993257076
scalar HighwayScenario1.node[14].veinsmobility totalDistance 4598.3536098581
scalar HighwayScenario1.node[14].veinsmobility totalCO2Emission 867.77658222727
scalar HighwayScenario1.node[15].appl generatedWSMs 0
scalar HighwayScenario1.node[15].appl receivedWSMs 17
scalar HighwayScenario1.node[15].appl generatedBSMs 1497
scalar HighwayScenario1.node[15].appl receivedBSMs 13412
scalar HighwayScenario1.node[15].appl generatedWSAs 0
scalar HighwayScenario1.node[15].appl receivedWSAs 0
scalar HighwayScenario1.node[15].appl delayBSM_P1 0.0010139487354528
scalar HighwayScenario1.node[15].appl delayBSM_P2 0.0010155925610588
scalar HighwayScenario1.node[15].nic.phy80211p busyTime 0.084319575612764
scalar HighwayScenario1.node[15].nic.mac1609_4 ReceivedUnicastPackets 0
scalar HighwayScenario1.node[15].nic.mac1609_4 ReceivedBroadcasts 13429
scalar HighwayScenario1.node[15].nic.mac1609_4 SentPackets 1497
scalar HighwayScenario1.node[15].nic.mac1609_4 SNIRLostPackets 913
scalar HighwayScenario1.node[15].nic.mac1609_4 RXTXLostPackets 0
scalar HighwayScenario1.node[15].nic.mac1609_4 TotalLostPackets 913
scalar HighwayScenario1.node[15].nic.mac1609_4 DroppedPacketsInMac 0
scalar HighwayScenario1.node[15].nic.mac1609_4 TooLittleTime 0
scalar HighwayScenario1.node[15].nic.mac1609_4 TimesIntoBackoff 1497
scalar HighwayScenario1.node[15].nic.mac1609_4 SlotsBackoff 2234
scalar HighwayScenario1.node[15].nic.mac1609_4 NumInternalContention 0
scalar HighwayScenario1.node[15].nic.mac1609_4 totalBusyTime 13.379561
scalar HighwayScenario1.node[15].veinsmobility startTime 31
scalar HighwayScenario1.node[15].veinsmobility totalTime 149
scalar HighwayScenario1.node[15].veinsmobility stopTime 180.71498502292
scalar HighwayScenario1.node[15].veinsmobility minSpeed 17.960573625613
scalar HighwayScenario1.node[15].veinsmobility maxSpeed 32.236885038166
scalar HighwayScenario1.node[15].veinsmobility totalDistance 4641.0690940538
scalar HighwayScenario1.node[15].veinsmobility totalCO2Emission 842.81008207767
scalar HighwayScenario1.node[17].appl generatedWSMs 0
scalar HighwayScenario1.node[17].appl receivedWSMs 10
scalar HighwayScenario1.node[17].appl generatedBSMs 1457
scalar HighwayScenario1.node[17].appl receivedBSMs 14411
scalar HighwayScenario1.node[17].appl generatedWSAs 0
scalar HighwayScenario1.node[17].appl receivedWSAs 0
scalar HighwayScenario1.node[17].appl delayBSM_P1 0.0010025035410271
scalar HighwayScenario1.node[17].appl delayBSM_P2 0.0010143988472
scalar HighwayScenario1.node[17].nic.phy80211p busyTime 0.091926194124079
scalar HighwayScenario1.node[17].nic.mac1609_4 ReceivedUnicastPackets 0
scalar HighwayScenario1.node[17].nic.mac1609_4 ReceivedBroadcasts 14421
scalar HighwayScenario1.node[17].nic.mac1609_4 SentPackets 1457
scalar HighwayScenario1.node[17].nic.mac1609_4 SNIRLostPackets 798
scalar HighwayScenario1.node[17].nic.mac1609_4 RXTXLostPackets 0
scalar HighwayScenario1.node[17].nic.mac1609_4 TotalLostPackets 798
scalar HighwayScenario1.node[17].nic.mac1609_4 DroppedPacketsInMac 0
scalar HighwayScenario1.node[17].nic.mac1609_4 TooLittleTime 0
scalar HighwayScenario1.node[17].nic.mac1609_4 TimesIntoBackoff 1457
scalar HighwayScenario1.node[17].nic.mac1609_4 SlotsBackoff 2189
scalar HighwayScenario1.node[17].nic.mac1609_4 NumInternalContention 0
scalar HighwayScenario1.node[17].nic.mac1609_4 totalBusyTime 14.282641
scalar HighwayScenario1.node[17].veinsmobility startTime 35
scalar HighwayScenario1.node[17].veinsmobility totalTime 145
scalar HighwayScenario1.node[17].veinsmobility stopTime 180.71498502292
scalar HighwayScenario1.node[17].veinsmobility minSpeed 30.315215458567
scalar HighwayScenario1.node[17].veinsmobility maxSpeed 34.490047262826
scalar HighwayScenario1.node[17].veinsmobility totalDistance 4792.714051881
scalar HighwayScenario1.node[17].veinsmobility totalCO2Emission 918.40743772653
scalar HighwayScenario1.node[18].appl generatedWSMs 0
scalar HighwayScenario1.node[18].appl receivedWSMs 13
scalar HighwayScenario1.node[18].appl generatedBSMs 1438
scalar HighwayScenario1.node[18].appl receivedBSMs 14006
scalar HighwayScenario1.node[18].appl generatedWSAs 0
scalar HighwayScenario1.node[18].appl receivedWSAs 0
scalar HighwayScenario1.node[18].appl delayBSM_P1 0.0010001688382081
scalar HighwayScenario1.node[18].appl delayBSM_P2 0.0010146450686923
scalar HighwayScenario1.node[18].nic.phy80211p busyTime 0.090519161922672
scalar HighwayScenario1.node[18].nic.mac1609_4 ReceivedUnicastPackets 0
scalar HighwayScenario1.node[18].nic.mac1609_4 ReceivedBroadcasts 14019
scalar HighwayScenario1.node[18].nic.mac1609_4 SentPackets 1438
scalar HighwayScenario1.node[18].nic.mac1609_4 SNIRLostPackets 761
scalar HighwayScenario1.node[18].nic.mac1609_4 RXTXLostPackets 0
scalar HighwayScenario1.node[18].nic.mac1609_4 TotalLostPackets 761
scalar HighwayScenario1.node[18].nic.mac1609_4 DroppedPacketsInMac 0
scalar HighwayScenario1.node[18].nic.mac1609_4 TooLittleTime 0
scalar HighwayScenario1.node[18].nic.mac1609_4 TimesIntoBackoff 1438
scalar HighwayScenario1.node[18].nic.mac1609_4 SlotsBackoff 2160
scalar HighwayScenario1.node[18].nic.mac1609_4 NumInternalContention 0
scalar HighwayScenario1.node[18].nic.mac1609_4 totalBusyTime 13.923838
scalar HighwayScenario1.node[18].veinsmobility startTime 37
scalar HighwayScenario1.node[18].veinsmobility totalTime 143
scalar HighwayScenario1.node[18].veinsmobility stopTime 180.71498502292
scalar HighwayScenario1.node[18].veinsmobility minSpeed 30.26572487651
scalar HighwayScenario1.node[18].veinsmobility maxSpeed 34.880321350713
scalar HighwayScenario1.node[18].veinsmobility totalDistance 4749.1015723771
scalar HighwayScenario1.node[18].veinsmobility totalCO2Emission 940.13449040562
scalar HighwayScenario1.node[19].appl generatedWSMs 0
scalar HighwayScenario1.node[19].appl receivedWSMs 35
scalar HighwayScenario1.node[19].appl generatedBSMs 1417
scalar HighwayScenario1.node[19].appl receivedBSMs 13279
scalar HighwayScenario1.node[19].appl generatedWSAs 0
scalar HighwayScenario1.node[19].appl receivedWSAs 0
scalar HighwayScenario1.node[19].appl delayBSM_P1 0.00095416463949545
scalar HighwayScenario1.node[19].appl delayBSM_P2 0.0010166658577714
scalar HighwayScenario1.node[19].nic.phy80211p busyTime 0.08751932618839
scalar HighwayScenario1.node[19].nic.mac1609_4 ReceivedUnicastPackets 0
scalar HighwayScenario1.node[19].nic.mac1609_4 ReceivedBroadcasts 13314
scalar HighwayScenario1.node[19].nic.mac1609_4 SentPackets 1417
scalar HighwayScenario1.node[19].nic.mac1609_4 SNIRLostPackets 697
scalar HighwayScenario1.node[19].nic.mac1609_4 RXTXLostPackets 212
scalar HighwayScenario1.node[19].nic.mac1609_4 TotalLostPackets 909
scalar HighwayScenario1.node[19].nic.mac1609_4 DroppedPacketsInMac 0
scalar HighwayScenario1.node[19].nic.mac1609_4 TooLittleTime 0
scalar HighwayScenario1.node[19].nic.mac1609_4 TimesIntoBackoff 1674
scalar HighwayScenario1.node[19].nic.mac1609_4 SlotsBackoff 2445
scalar HighwayScenario1.node[19].nic.mac1609_4 NumInternalContention 0
scalar HighwayScenario1.node[19].nic.mac1609_4 totalBusyTime 13.299177312604
scalar HighwayScenario1.node[19].veinsmobility startTime 39
scalar HighwayScenario1.node[19].veinsmobility totalTime 141
scalar HighwayScenario1.node[19].veinsmobility stopTime 180.71498502292
scalar HighwayScenario1.node[19].veinsmobility minSpeed 0
scalar HighwayScenario1.node[19].veinsmobility maxSpeed 27.554096394501
scalar HighwayScenario1.node[19].veinsmobility totalDistance 2495.645096545
scalar HighwayScenario1.node[19].veinsmobility totalCO2Emission 475.97044753928
scalar HighwayScenario1.node[20].appl generatedWSMs 0
scalar HighwayScenario1.node[20].appl receivedWSMs 28
scalar HighwayScenario1.node[20].appl generatedBSMs 1398
scalar HighwayScenario1.node[20].appl receivedBSMs 12647
scalar HighwayScenario1.node[20].appl generatedWSAs 0
scalar HighwayScenario1.node[20].appl receivedWSAs 0
scalar HighwayScenario1.node[20].appl delayBSM_P1 0.00093076024991073
scalar HighwayScenario1.node[20].appl delayBSM_P2 0.0010159484078929
scalar HighwayScenario1.node[20].nic.phy80211p busyTime 0.086115887984598
scalar HighwayScenario1.node[20].nic.mac1609_4 ReceivedUnicastPackets 0
scalar HighwayScenario1.node[20].nic.mac1609_4 ReceivedBroadcasts 12675
scalar HighwayScenario1.node[20].nic.mac1609_4 SentPackets 1398
scalar HighwayScenario1.node[20].nic.mac1609_4 SNIRLostPackets 993
scalar HighwayScenario1.node[20].nic.mac1609_4 RXTXLostPackets 0
scalar HighwayScenario1.node[20].nic.mac1609_4 TotalLostPackets 993
scalar HighwayScenario1.node[20].nic.mac1609_4 DroppedPacketsInMac 0
scalar HighwayScenario1.node[20].nic.mac1609_4 TooLittleTime 0
scalar HighwayScenario1.node[20].nic.mac1609_4 TimesIntoBackoff 1828
scalar HighwayScenario1.node[20].nic.mac1609_4 SlotsBackoff 2743
scalar HighwayScenario1.node[20].nic.mac1609_4 NumInternalContention 0
scalar HighwayScenario1.node[20].nic.mac1609_4 totalBusyTime 12.867318
scalar HighwayScenario1.node[20].veinsmobility startTime 41
scalar HighwayScenario1.node[20].veinsmobility totalTime 139
scalar HighwayScenario1.node[20].veinsmobility stopTime 180.71498502292
scalar HighwayScenario1.node[20].veinsmobility minSpeed 0
scalar HighwayScenario1.node[20].veinsmobility maxSpeed 33.514051045209
scalar HighwayScenario1.node[20].veinsmobility totalDistance 4331.2374013222
scalar HighwayScenario1.node[20].veinsmobility totalCO2Emission 800.61108406324
scalar HighwayScenario1.node[21].appl generatedWSMs 0
scalar HighwayScenario1.node[21].appl receivedWSMs 44
scalar HighwayScenario1.node[21].appl generatedBSMs 1377
scalar HighwayScenario1.node[21].appl receivedBSMs 8680
scalar HighwayScenario1.node[21].appl generatedWSAs 0
scalar HighwayScenario1.node[21].appl receivedWSAs 0
scalar HighwayScenario1.node[21].appl delayBSM_P1 0.00090433658023975
scalar HighwayScenario1.node[21].appl delayBSM_P2 0.0010167555128182
scalar HighwayScenario1.node[21].nic.phy80211p busyTime 0.061774773446666
scalar HighwayScenario1.node[21].nic.mac1609_4 ReceivedUnicastPackets 0
scalar HighwayScenario1.node[21].nic.mac1609_4 ReceivedBroadcasts 8724
scalar HighwayScenario1.node[21].nic.mac1609_4 SentPackets 1377
scalar HighwayScenario1.node[21].nic.mac1609_4 SNIRLostPackets 937
scalar HighwayScenario1.node[21].nic.mac1609_4 RXTXLostPackets 0
scalar HighwayScenario1.node[21].nic.mac1609_4 TotalLostPackets 937
scalar HighwayScenario1.node[21].nic.mac1609_4 DroppedPacketsInMac 0
scalar HighwayScenario1.node[21].nic.mac1609_4 TooLittleTime 0
scalar HighwayScenario1.node[21].nic.mac1609_4 TimesIntoBackoff 1377
scalar HighwayScenario1.node[21].nic.mac1609_4 SlotsBackoff 2086
scalar HighwayScenario1.node[21].nic.mac1609_4 NumInternalContention 0
scalar HighwayScenario1.node[21].nic.mac1609_4 totalBusyTime 9.440609
scalar HighwayScenario1.node[21].veinsmobility startTime 43
scalar HighwayScenario1.node[21].veinsmobility totalTime 137
scalar HighwayScenario1.node[21].veinsmobility stopTime 180.71498502292
scalar HighwayScenario1.node[21].veinsmobility minSpeed 0
scalar HighwayScenario1.node[21].veinsmobility maxSpeed 30.476052781668
scalar HighwayScenario1.node[21].veinsmobility totalDistance 3050.9428066332
scalar HighwayScenario1.node[21].veinsmobility totalCO2Emission 568.47671415954
scalar HighwayScenario1.node[22].appl generatedWSMs 0
scalar HighwayScenario1.node[22].appl receivedWSMs 45
scalar HighwayScenario1.node[22].appl generatedBSMs 1357
scalar HighwayScenario1.node[22].appl receivedBSMs 8912
scalar HighwayScenario1.node[22].appl generatedWSAs 0
scalar HighwayScenario1.node[22].appl receivedWSAs 0
scalar HighwayScenario1.node[22].appl delayBSM_P1 0.00090645295124551
scalar HighwayScenario1.node[22].appl delayBSM_P2 0.0010167386184889
scalar HighwayScenario1.node[22].nic.phy80211p busyTime 0.063989396591212
scalar HighwayScenario1.node[22].nic.mac1609_4 ReceivedUnicastPackets 0
scalar HighwayScenario1.node[22].nic.mac1609_4 ReceivedBroadcasts 8957
scalar HighwayScenario1.node[22].nic.mac1609_4 SentPackets 1357
scalar HighwayScenario1.node[22].nic.mac1609_4 SNIRLostPackets 905
scalar HighwayScenario1.node[22].nic.mac1609_4 RXTXLostPackets 0
scalar HighwayScenario1.node[22].nic.mac1609_4 TotalLostPackets 905
scalar HighwayScenario1.node[22].nic.mac1609_4 DroppedPacketsInMac 0
scalar HighwayScenario1.node[22].nic.mac1609_4 TooLittleTime 0
scalar HighwayScenario1.node[22].nic.mac1609_4 TimesIntoBackoff 1357
scalar HighwayScenario1.node[22].nic.mac1609_4 SlotsBackoff 2068
scalar HighwayScenario1.node[22].nic.mac1609_4 NumInternalContention 0
scalar HighwayScenario1.node[22].nic.mac1609_4 totalBusyTime 9.605277
scalar HighwayScenario1.node[22].veinsmobility startTime 45
scalar HighwayScenario1.node[22].veinsmobility totalTime 135
scalar HighwayScenario1.node[22].veinsmobility stopTime 180.71498502292
scalar HighwayScenario1.node[22].veinsmobility minSpeed 0
scalar HighwayScenario1.node[22].veinsmobility maxSpeed 31.133692542322
scalar HighwayScenario1.node[22].veinsmobility totalDistance 3013.0573030334
scalar HighwayScenario1.node[22].veinsmobility totalCO2Emission 571.04686599646
scalar HighwayScenario1.node[23].appl generatedWSMs 0
scalar HighwayScenario1.node[23].appl receivedWSMs 43
scalar HighwayScenario1.node[23].appl generatedBSMs 1337
scalar HighwayScenario1.node[23].appl receivedBSMs 9935
scalar HighwayScenario1.node[23].appl generatedWSAs 0
scalar HighwayScenario1.node[23].appl receivedWSAs 0
scalar HighwayScenario1.node[23].appl delayBSM_P1 0.00093569480031656
scalar HighwayScenario1.node[23].appl delayBSM_P2 0.001016528252
scalar HighwayScenario1.node[23].nic.phy80211p busyTime 0.071973264614679
scalar HighwayScenario1.node[23].nic.mac1609_4 ReceivedUnicastPackets 0
scalar HighwayScenario1.node[23].nic.mac1609_4 ReceivedBroadcasts 9978
scalar HighwayScenario1.node[23].nic.mac1609_4 SentPackets 1337
scalar HighwayScenario1.node[23].nic.mac1609_4 SNIRLostPackets 952
scalar HighwayScenario1.node[23].nic.mac1609_4 RXTXLostPackets 0
scalar HighwayScenario1.node[23].nic.mac1609_4 TotalLostPackets 952
scalar HighwayScenario1.node[23].nic.mac1609_4 DroppedPacketsInMac 0
scalar HighwayScenario1.node[23].nic.mac1609_4 TooLittleTime 0
scalar HighwayScenario1.node[23].nic.mac1609_4 TimesIntoBackoff 1337
scalar HighwayScenario1.node[23].nic.mac1609_4 SlotsBackoff 1982
scalar HighwayScenario1.node[23].nic.mac1609_4 NumInternalContention 0
scalar HighwayScenario1.node[23].nic.mac1609_4 totalBusyTime 10.376761
scalar HighwayScenario1.node[23].veinsmobility startTime 47
scalar HighwayScenario1.node[23].veinsmobility totalTime 133
scalar HighwayScenario1.node[23].veinsmobility stopTime 180.71498502292
scalar HighwayScenario1.node[23].veinsmobility minSpeed 0
scalar HighwayScenario1.node[23].veinsmobility maxSpeed 32.313281879308
scalar HighwayScenario1.node[23].veinsmobility totalDistance 2825.9480806829
scalar HighwayScenario1.node[23].veinsmobility totalCO2Emission 651.93924700048
scalar HighwayScenario1.node[24].appl generatedWSMs 0
scalar HighwayScenario1.node[24].appl receivedWSMs 34
scalar HighwayScenario1.node[24].appl generatedBSMs 1318
scalar HighwayScenario1.node[24].appl receivedBSMs 13435
scalar HighwayScenario1.node[24].appl generatedWSAs 0
scalar HighwayScenario1.node[24].appl receivedWSAs 0
scalar HighwayScenario1.node[24].appl delayBSM_P1 0.00096029873500223
scalar HighwayScenario1.node[24].appl delayBSM_P2 0.0010170687012059
scalar HighwayScenario1.node[24].nic.phy80211p busyTime 0.097002417741464
scalar HighwayScenario1.node[24].nic.mac1609_4 ReceivedUnicastPackets 0
scalar HighwayScenario1.node[24].nic.mac1609_4 ReceivedBroadcasts 13469
scalar HighwayScenario1.node[24].nic.mac1609_4 SentPackets 1318
scalar HighwayScenario1.node[24].nic.mac1609_4 SNIRLostPackets 1044
scalar HighwayScenario1.node[24].nic.mac1609_4 RXTXLostPackets 0
scalar HighwayScenario1.node[24].nic.mac1609_4 TotalLostPackets 1044
scalar HighwayScenario1.node[24].nic.mac1609_4 DroppedPacketsInMac 0
scalar HighwayScenario1.node[24].nic.mac1609_4 TooLittleTime 0
scalar HighwayScenario1.node[24].nic.mac1609_4 TimesIntoBackoff 1546
scalar HighwayScenario1.node[24].nic.mac1609_4 SlotsBackoff 2228
scalar HighwayScenario1.node[24].nic.mac1609_4 NumInternalContention 0
scalar HighwayScenario1.node[24].nic.mac1609_4 totalBusyTime 13.65183
scalar HighwayScenario1.node[24].veinsmobility startTime 49
scalar HighwayScenario1.node[24].veinsmobility totalTime 131
scalar HighwayScenario1.node[24].veinsmobility stopTime 180.71498502292
scalar HighwayScenario1.node[24].veinsmobility minSpeed 0
scalar HighwayScenario1.node[24].veinsmobility maxSpeed 30.246936229586
scalar HighwayScenario1.node[24].veinsmobility totalDistance 2244.1281921555
scalar HighwayScenario1.node[24].veinsmobility totalCO2Emission 443.546086864
scalar HighwayScenario1.node[25].appl generatedWSMs 0
scalar HighwayScenario1.node[25].appl receivedWSMs 37
scalar HighwayScenario1.node[25].appl generatedBSMs 1298
scalar HighwayScenario1.node[25].appl receivedBSMs 13168
scalar HighwayScenario1.node[25].appl generatedWSAs 0
scalar HighwayScenario1.node[25].appl receivedWSAs 0
scalar HighwayScenario1.node[25].appl delayBSM_P1 0.00097244793450341
scalar HighwayScenario1.node[25].appl delayBSM_P2 0.0010169435593243
scalar HighwayScenario1.node[25].nic.phy80211p busyTime 0.095787360248381
scalar HighwayScenario1.node[25].nic.mac1609_4 ReceivedUnicastPackets 0
scalar HighwayScenario1.node[25].nic.mac1609_4 ReceivedBroadcasts 13205
scalar HighwayScenario1.node[25].nic.mac1609_4 SentPackets 1298
scalar HighwayScenario1.node[25].nic.mac1609_4 SNIRLostPackets 908
scalar HighwayScenario1.node[25].nic.mac1609_4 RXTXLostPackets 0
scalar HighwayScenario1.node[25].nic.mac1609_4 TotalLostPackets 908
scalar HighwayScenario1.node[25].nic.mac1609_4 DroppedPacketsInMac 0
scalar HighwayScenario1.node[25].nic.mac1609_4 TooLittleTime 0
scalar HighwayScenario1.node[25].nic.mac1609_4 TimesIntoBackoff 1298
scalar HighwayScenario1.node[25].nic.mac1609_4 SlotsBackoff 1854
scalar HighwayScenario1.node[25].nic.mac1609_4 NumInternalContention 0
scalar HighwayScenario1.node[25].nic.mac1609_4 totalBusyTime 13.257954
scalar HighwayScenario1.node[25].veinsmobility startTime 51
scalar HighwayScenario1.node[25].veinsmobility totalTime 129
scalar HighwayScenario1.node[25].veinsmobility stopTime 180.71498502292
scalar HighwayScenario1.node[25].veinsmobility minSpeed 0
scalar HighwayScenario1.node[25].veinsmobility maxSpeed 31.511542353748
scalar HighwayScenario1.node[25].veinsmobility totalDistance 2358.4253602539
scalar HighwayScenario1.node[25].veinsmobility totalCO2Emission 461.75985557434
scalar HighwayScenario1.node[26].appl generatedWSMs 0
scalar HighwayScenario1.node[26].appl receivedWSMs 35
scalar HighwayScenario1.node[26].appl generatedBSMs 1277
scalar HighwayScenario1.node[26].appl receivedBSMs 13896
scalar HighwayScenario1.node[26].appl generatedWSAs 0
scalar HighwayScenario1.node[26].appl receivedWSAs 0
scalar HighwayScenario1.node[26].appl delayBSM_P1 0.00095803495166479
scalar HighwayScenario1.node[26].appl delayBSM_P2 0.0010170041287429
scalar HighwayScenario1.node[26].nic.phy80211p busyTime 0.1024600206284
scalar HighwayScenario1.node[26].nic.mac1609_4 ReceivedUnicastPackets 0
scalar HighwayScenario1.node[26].nic.mac1609_4 ReceivedBroadcasts 13931
scalar HighwayScenario1.node[26].nic.mac1609_4 SentPackets 1277
scalar HighwayScenario1.node[26].nic.mac1609_4 SNIRLostPackets 933
scalar HighwayScenario1.node[26].nic.mac1609_4 RXTXLostPackets 0
scalar HighwayScenario1.node[26].nic.mac1609_4 TotalLostPackets 933
scalar HighwayScenario1.node[26].nic.mac1609_4 DroppedPacketsInMac 0
scalar HighwayScenario1.node[26].nic.mac1609_4 TooLittleTime 0
scalar HighwayScenario1.node[26].nic.mac1609_4 TimesIntoBackoff 1277
scalar HighwayScenario1.node[26].nic.mac1609_4 SlotsBackoff 1933
scalar HighwayScenario1.node[26].nic.mac1609_4 NumInternalContention 0
scalar HighwayScenario1.node[26].nic.mac1609_4 totalBusyTime 14.007437
scalar HighwayScenario1.node[26].veinsmobility startTime 53
scalar HighwayScenario1.node[26].veinsmobility totalTime 127
scalar HighwayScenario1.node[26].veinsmobility stopTime 180.71498502292
scalar HighwayScenario1.node[26].veinsmobility minSpeed 0
scalar HighwayScenario1.node[26].veinsmobility maxSpeed 32.664085859891
scalar HighwayScenario1.node[26].veinsmobility totalDistance 2092.4154736703
scalar HighwayScenario1.node[26].veinsmobility totalCO2Emission 497.82996344657
scalar HighwayScenario1.node[27].appl generatedWSMs 0
scalar HighwayScenario1.node[27].appl receivedWSMs 37
scalar HighwayScenario1.node[27].appl generatedBSMs 1257
scalar HighwayScenario1.node[27].appl receivedBSMs 13820
scalar HighwayScenario1.node[27].appl generatedWSAs 0
scalar HighwayScenario1.node[27].appl receivedWSAs 0
scalar HighwayScenario1.node[27].appl delayBSM_P1 0.00095516444586404
scalar HighwayScenario1.node[27].appl delayBSM_P2 0.0010169356276486
scalar HighwayScenario1.node[27].nic.phy80211p busyTime 0.10415509334561
scalar HighwayScenario1.node[27].nic.mac1609_4 ReceivedUnicastPackets 0
scalar HighwayScenario1.node[27].nic.mac1609_4 ReceivedBroadcasts 13857
scalar HighwayScenario1.node[27].nic.mac1609_4 SentPackets 1257
scalar HighwayScenario1.node[27].nic.mac1609_4 SNIRLostPackets 1016
scalar HighwayScenario1.node[27].nic.mac1609_4 RXTXLostPackets 0
scalar HighwayScenario1.node[27].nic.mac1609_4 TotalLostPackets 1016
scalar HighwayScenario1.node[27].nic.mac1609_4 DroppedPacketsInMac 0
scalar HighwayScenario1.node[27].nic.mac1609_4 TooLittleTime 0
scalar HighwayScenario1.node[27].nic.mac1609_4 TimesIntoBackoff 1527
scalar HighwayScenario1.node[27].nic.mac1609_4 SlotsBackoff 2357
scalar HighwayScenario1.node[27].nic.mac1609_4 NumInternalContention 0
scalar HighwayScenario1.node[27].nic.mac1609_4 totalBusyTime 13.894153
scalar HighwayScenario1.node[27].veinsmobility startTime 55
scalar HighwayScenario1.node[27].veinsmobility totalTime 125
scalar HighwayScenario1.node[27].veinsmobility stopTime 180.71498502292
scalar HighwayScenario1.node[27].veinsmobility minSpeed 0
scalar HighwayScenario1.node[27].veinsmobility maxSpeed 34.187945280177
scalar HighwayScenario1.node[27].veinsmobility totalDistance 2141.5730924152
scalar HighwayScenario1.node[27].veinsmobility totalCO2Emission 455.44024628875
scalar HighwayScenario1.node[28].appl generatedWSMs 0
scalar HighwayScenario1.node[28].appl receivedWSMs 35
scalar HighwayScenario1.node[28].appl generatedBSMs 1237
scalar HighwayScenario1.node[28].appl receivedBSMs 12884
scalar HighwayScenario1.node[28].appl generatedWSAs 0
scalar HighwayScenario1.node[28].appl receivedWSAs 0
scalar HighwayScenario1.node[28].appl delayBSM_P1 0.00093864230006171
scalar HighwayScenario1.node[28].appl delayBSM_P2 0.001016713822
scalar HighwayScenario1.node[28].nic.phy80211p busyTime 0.10471294158589
scalar HighwayScenario1.node[28].nic.mac1609_4 ReceivedUnicastPackets 0
scalar HighwayScenario1.node[28].nic.mac1609_4 ReceivedBroadcasts 12919
scalar HighwayScenario1.node[28].nic.mac1609_4 SentPackets 1237
scalar HighwayScenario1.node[28].nic.mac1609_4 SNIRLostPackets 1797
scalar HighwayScenario1.node[28].nic.mac1609_4 RXTXLostPackets 0
scalar HighwayScenario1.node[28].nic.mac1609_4 TotalLostPackets 1797
scalar HighwayScenario1.node[28].nic.mac1609_4 DroppedPacketsInMac 0
scalar HighwayScenario1.node[28].nic.mac1609_4 TooLittleTime 0
scalar HighwayScenario1.node[28].nic.mac1609_4 TimesIntoBackoff 1524
scalar HighwayScenario1.node[28].nic.mac1609_4 SlotsBackoff 2286
scalar HighwayScenario1.node[28].nic.mac1609_4 NumInternalContention 0
scalar HighwayScenario1.node[28].nic.mac1609_4 totalBusyTime 13.709957
scalar HighwayScenario1.node[28].veinsmobility startTime 57
scalar HighwayScenario1.node[28].veinsmobility totalTime 123
scalar HighwayScenario1.node[28].veinsmobility stopTime 180.71498502292
scalar HighwayScenario1.node[28].veinsmobility minSpeed 0
scalar HighwayScenario1.node[28].veinsmobility maxSpeed 30.655354232993
scalar HighwayScenario1.node[28].veinsmobility totalDistance 1826.9805719044
scalar HighwayScenario1.node[28].veinsmobility totalCO2Emission 474.82314664611
scalar HighwayScenario1.node[29].appl generatedWSMs 0
scalar HighwayScenario1.node[29].appl receivedWSMs 40
scalar HighwayScenario1.node[29].appl generatedBSMs 1217
scalar HighwayScenario1.node[29].appl receivedBSMs 12439
scalar HighwayScenario1.node[29].appl generatedWSAs 0
scalar HighwayScenario1.node[29].appl receivedWSAs 0
scalar HighwayScenario1.node[29].appl delayBSM_P1 0.00097580252467352
scalar HighwayScenario1.node[29].appl delayBSM_P2 0.0010171000575
scalar HighwayScenario1.node[29].nic.phy80211p busyTime 0.10682201536282
scalar HighwayScenario1.node[29].nic.mac1609_4 ReceivedUnicastPackets 0
scalar HighwayScenario1.node[29].nic.mac1609_4 ReceivedBroadcasts 12479
scalar HighwayScenario1.node[29].nic.mac1609_4 SentPackets 1217
scalar HighwayScenario1.node[29].nic.mac1609_4 SNIRLostPackets 2290
scalar HighwayScenario1.node[29].nic.mac1609_4 RXTXLostPackets 0
scalar HighwayScenario1.node[29].nic.mac1609_4 TotalLostPackets 2290
scalar HighwayScenario1.node[29].nic.mac1609_4 DroppedPacketsInMac 0
scalar HighwayScenario1.node[29].nic.mac1609_4 TooLittleTime 0
scalar HighwayScenario1.node[29].nic.mac1609_4 TimesIntoBackoff 1217
scalar HighwayScenario1.node[29].nic.mac1609_4 SlotsBackoff 1765
scalar HighwayScenario1.node[29].nic.mac1609_4 NumInternalContention 0
scalar HighwayScenario1.node[29].nic.mac1609_4 totalBusyTime 13.616417
scalar HighwayScenario1.node[29].veinsmobility startTime 59
scalar HighwayScenario1.node[29].veinsmobility totalTime 121
scalar HighwayScenario1.node[29].veinsmobility stopTime 180.71498502292
scalar HighwayScenario1.node[29].veinsmobility minSpeed 0
scalar HighwayScenario1.node[29].veinsmobility maxSpeed 33.028904507427
scalar HighwayScenario1.node[29].veinsmobility totalDistance 1943.2718561102
scalar HighwayScenario1.node[29].veinsmobility totalCO2Emission 490.55340106383
scalar HighwayScenario1.node[30].appl generatedWSMs 0
scalar HighwayScenario1.node[30].appl receivedWSMs 43
scalar HighwayScenario1.node[30].appl generatedBSMs 1198
scalar HighwayScenario1.node[30].appl receivedBSMs 12684
scalar HighwayScenario1.node[30].appl generatedWSAs 0
scalar HighwayScenario1.node[30].appl receivedWSAs 0
scalar HighwayScenario1.node[30].appl delayBSM_P1 0.00093183521411447
scalar HighwayScenario1.node[30].appl delayBSM_P2 0.0010165197135814
scalar HighwayScenario1.node[30].nic.phy80211p busyTime 0.10587533379866
scalar HighwayScenario1.node[30].nic.mac1609_4 ReceivedUnicastPackets 0
scalar HighwayScenario1.node[30].nic.mac1609_4 ReceivedBroadcasts 12727
scalar HighwayScenario1.node[30].nic.mac1609_4 SentPackets 1198
scalar HighwayScenario1.node[30].nic.mac1609_4 SNIRLostPackets 1670
scalar HighwayScenario1.node[30].nic.mac1609_4 RXTXLostPackets 0
scalar HighwayScenario1.node[30].nic.mac1609_4 TotalLostPackets 1670
scalar HighwayScenario1.node[30].nic.mac1609_4 DroppedPacketsInMac 0
scalar HighwayScenario1.node[30].nic.mac1609_4 TooLittleTime 0
scalar HighwayScenario1.node[30].nic.mac1609_4 TimesIntoBackoff 1468
scalar HighwayScenario1.node[30].nic.mac1609_4 SlotsBackoff 2114
scalar HighwayScenario1.node[30].nic.mac1609_4 NumInternalContention 0
scalar HighwayScenario1.node[30].nic.mac1609_4 totalBusyTime 13.316702
scalar HighwayScenario1.node[30].veinsmobility startTime 61
scalar HighwayScenario1.node[30].veinsmobility totalTime 119
scalar HighwayScenario1.node[30].veinsmobility stopTime 180.71498502292
scalar HighwayScenario1.node[30].veinsmobility minSpeed 0
scalar HighwayScenario1.node[30].veinsmobility maxSpeed 32.241743790504
scalar HighwayScenario1.node[30].veinsmobility totalDistance 1705.4527875386
scalar HighwayScenario1.node[30].veinsmobility totalCO2Emission 469.94607863085
scalar HighwayScenario1.node[31].appl generatedWSMs 0
scalar HighwayScenario1.node[31].appl receivedWSMs 40
scalar HighwayScenario1.node[31].appl generatedBSMs 1177
scalar HighwayScenario1.node[31].appl receivedBSMs 12606
scalar HighwayScenario1.node[31].appl generatedWSAs 0
scalar HighwayScenario1.node[31].appl receivedWSAs 0
scalar HighwayScenario1.node[31].appl delayBSM_P1 0.00095793758770427
scalar HighwayScenario1.node[31].appl delayBSM_P2 0.001016537261425
scalar HighwayScenario1.node[31].nic.phy80211p busyTime 0.10736441072089
scalar HighwayScenario1.node[31].nic.mac1609_4 ReceivedUnicastPackets 0
scalar HighwayScenario1.node[31].nic.mac1609_4 ReceivedBroadcasts 12646
scalar HighwayScenario1.node[31].nic.mac1609_4 SentPackets 1177
scalar HighwayScenario1.node[31].nic.mac1609_4 SNIRLostPackets 1709
scalar HighwayScenario1.node[31].nic.mac1609_4 RXTXLostPackets 0
scalar HighwayScenario1.node[31].nic.mac1609_4 TotalLostPackets 1709
scalar HighwayScenario1.node[31].nic.mac1609_4 DroppedPacketsInMac 0
scalar HighwayScenario1.node[31].nic.mac1609_4 TooLittleTime 0
scalar HighwayScenario1.node[31].nic.mac1609_4 TimesIntoBackoff 1354
scalar HighwayScenario1.node[31].nic.mac1609_4 SlotsBackoff 2028
scalar HighwayScenario1.node[31].nic.mac1609_4 NumInternalContention 0
scalar HighwayScenario1.node[31].nic.mac1609_4 totalBusyTime 13.243257
scalar HighwayScenario1.node[31].veinsmobility startTime 63
scalar HighwayScenario1.node[31].veinsmobility totalTime 117
scalar HighwayScenario1.node[31].veinsmobility stopTime 180.71498502292
scalar HighwayScenario1.node[31].veinsmobility minSpeed 0
scalar HighwayScenario1.node[31].veinsmobility maxSpeed 32.881584998627
scalar HighwayScenario1.node[31].veinsmobility totalDistance 1534.9069105746
scalar HighwayScenario1.node[31].veinsmobility totalCO2Emission 424.77742229927
scalar HighwayScenario1.node[32].appl generatedWSMs 0
scalar HighwayScenario1.node[32].appl receivedWSMs 37
scalar HighwayScenario1.node[32].appl generatedBSMs 1157
scalar HighwayScenario1.node[32].appl receivedBSMs 13294
scalar HighwayScenario1.node[32].appl generatedWSAs 0
scalar HighwayScenario1.node[32].appl receivedWSAs 0
scalar HighwayScenario1.node[32].appl delayBSM_P1 0.00096137996757071
scalar HighwayScenario1.node[32].appl delayBSM_P2 0.0010163798032432
scalar HighwayScenario1.node[32].nic.phy80211p busyTime 0.11206099190555
scalar HighwayScenario1.node[32].nic.mac1609_4 ReceivedUnicastPackets 0
scalar HighwayScenario1.node[32].nic.mac1609_4 ReceivedBroadcasts 13331
scalar HighwayScenario1.node[32].nic.mac1609_4 SentPackets 1157
scalar HighwayScenario1.node[32].nic.mac1609_4 SNIRLostPackets 1398
scalar HighwayScenario1.node[32].nic.mac1609_4 RXTXLostPackets 0
scalar HighwayScenario1.node[32].nic.mac1609_4 TotalLostPackets 1398
scalar HighwayScenario1.node[32].nic.mac1609_4 DroppedPacketsInMac 0
scalar HighwayScenario1.node[32].nic.mac1609_4 TooLittleTime 0
scalar HighwayScenario1.node[32].nic.mac1609_4 TimesIntoBackoff 1157
scalar HighwayScenario1.node[32].nic.mac1609_4 SlotsBackoff 1752
scalar HighwayScenario1.node[32].nic.mac1609_4 NumInternalContention 0
scalar HighwayScenario1.node[32].nic.mac1609_4 totalBusyTime 13.642373
scalar HighwayScenario1.node[32].veinsmobility startTime 65
scalar HighwayScenario1.node[32].veinsmobility totalTime 115
scalar HighwayScenario1.node[32].veinsmobility stopTime 180.71498502292
scalar HighwayScenario1.node[32].veinsmobility minSpeed 0
scalar HighwayScenario1.node[32].veinsmobility maxSpeed 34.032394894038
scalar HighwayScenario1.node[32].veinsmobility totalDistance 1486.9563408
scalar HighwayScenario1.node[32].veinsmobility totalCO2Emission 418.91022205423
scalar HighwayScenario1.node[33].appl generatedWSMs 0
scalar HighwayScenario1.node[33].appl receivedWSMs 29
scalar HighwayScenario1.node[33].appl generatedBSMs 1137
scalar HighwayScenario1.node[33].appl receivedBSMs 13235
scalar HighwayScenario1.node[33].appl generatedWSAs 0
scalar HighwayScenario1.node[33].appl receivedWSAs 0
scalar HighwayScenario1.node[33].appl delayBSM_P1 0.00096982222520068
scalar HighwayScenario1.node[33].appl delayBSM_P2 0.0010158430664138
scalar HighwayScenario1.node[33].nic.phy80211p busyTime 0.11488962512171
scalar HighwayScenario1.node[33].nic.mac1609_4 ReceivedUnicastPackets 0
scalar HighwayScenario1.node[33].nic.mac1609_4 ReceivedBroadcasts 13264
scalar HighwayScenario1.node[33].nic.mac1609_4 SentPackets 1137
scalar HighwayScenario1.node[33].nic.mac1609_4 SNIRLostPackets 1577
scalar HighwayScenario1.node[33].nic.mac1609_4 RXTXLostPackets 0
scalar HighwayScenario1.node[33].nic.mac1609_4 TotalLostPackets 1577
scalar HighwayScenario1.node[33].nic.mac1609_4 DroppedPacketsInMac 0
scalar HighwayScenario1.node[33].nic.mac1609_4 TooLittleTime 0
scalar HighwayScenario1.node[33].nic.mac1609_4 TimesIntoBackoff 1137
scalar HighwayScenario1.node[33].nic.mac1609_4 SlotsBackoff 1654
scalar HighwayScenario1.node[33].nic.mac1609_4 NumInternalContention 0
scalar HighwayScenario1.node[33].nic.mac1609_4 totalBusyTime 13.669489
scalar HighwayScenario1.node[33].veinsmobility startTime 67
scalar HighwayScenario1.node[33].veinsmobility totalTime 113
scalar HighwayScenario1.node[33].veinsmobility stopTime 180.71498502292
scalar HighwayScenario1.node[33].veinsmobility minSpeed 0
scalar HighwayScenario1.node[33].veinsmobility maxSpeed 32.336215222711
scalar HighwayScenario1.node[33].veinsmobility totalDistance 1448.0756958635
scalar HighwayScenario1.node[33].veinsmobility totalCO2Emission 511.564724431
scalar HighwayScenario1.node[34].appl generatedWSMs 0
scalar HighwayScenario1.node[34].appl receivedWSMs 24
scalar HighwayScenario1.node[34].appl generatedBSMs 1118
scalar HighwayScenario1.node[34].appl receivedBSMs 15680
scalar HighwayScenario1.node[34].appl generatedWSAs 0
scalar HighwayScenario1.node[34].appl receivedWSAs 0
scalar HighwayScenario1.node[34].appl delayBSM_P1 0.00096418904925211
scalar HighwayScenario1.node[34].appl delayBSM_P2 0.001015836186625
scalar HighwayScenario1.node[34].nic.phy80211p busyTime 0.1370827019926
scalar HighwayScenario1.node[34].nic.mac1609_4 ReceivedUnicastPackets 0
scalar HighwayScenario1.node[34].nic.mac1609_4 ReceivedBroadcasts 15704
scalar HighwayScenario1.node[34].nic.mac1609_4 SentPackets 1118
scalar HighwayScenario1.node[34].nic.mac1609_4 SNIRLostPackets 1694
scalar HighwayScenario1.node[34].nic.mac1609_4 RXTXLostPackets 30
scalar HighwayScenario1.node[34].nic.mac1609_4 TotalLostPackets 1724
scalar HighwayScenario1.node[34].nic.mac1609_4 DroppedPacketsInMac 0
scalar HighwayScenario1.node[34].nic.mac1609_4 TooLittleTime 0
scalar HighwayScenario1.node[34].nic.mac1609_4 TimesIntoBackoff 1606
scalar HighwayScenario1.node[34].nic.mac1609_4 SlotsBackoff 2412
scalar HighwayScenario1.node[34].nic.mac1609_4 NumInternalContention 0
scalar HighwayScenario1.node[34].nic.mac1609_4 totalBusyTime 15.88643
scalar HighwayScenario1.node[34].veinsmobility startTime 69
scalar HighwayScenario1.node[34].veinsmobility totalTime 111
scalar HighwayScenario1.node[34].veinsmobility stopTime 180.71498502292
scalar HighwayScenario1.node[34].veinsmobility minSpeed 0
scalar HighwayScenario1.node[34].veinsmobility maxSpeed 33.926419435525
scalar HighwayScenario1.node[34].veinsmobility totalDistance 1333.3462673633
scalar HighwayScenario1.node[34].veinsmobility totalCO2Emission 433.66949503104
scalar HighwayScenario1.node[35].appl generatedWSMs 0
scalar HighwayScenario1.node[35].appl receivedWSMs 16
scalar HighwayScenario1.node[35].appl generatedBSMs 1098
scalar HighwayScenario1.node[35].appl receivedBSMs 15718
scalar HighwayScenario1.node[35].appl generatedWSAs 0
scalar HighwayScenario1.node[35].appl receivedWSAs 0
scalar HighwayScenario1.node[35].appl delayBSM_P1 0.00097695161469748
scalar HighwayScenario1.node[35].appl delayBSM_P2 0.001016138104625
scalar HighwayScenario1.node[35].nic.phy80211p busyTime 0.12909711464706
scalar HighwayScenario1.node[35].nic.mac1609_4 ReceivedUnicastPackets 0
scalar HighwayScenario1.node[35].nic.mac1609_4 ReceivedBroadcasts 15734
scalar HighwayScenario1.node[35].nic.mac1609_4 SentPackets 1098
scalar HighwayScenario1.node[35].nic.mac1609_4 SNIRLostPackets 359
scalar HighwayScenario1.node[35].nic.mac1609_4 RXTXLostPackets 80
scalar HighwayScenario1.node[35].nic.mac1609_4 TotalLostPackets 439
scalar HighwayScenario1.node[35].nic.mac1609_4 DroppedPacketsInMac 0
scalar HighwayScenario1.node[35].nic.mac1609_4 TooLittleTime 0
scalar HighwayScenario1.node[35].nic.mac1609_4 TimesIntoBackoff 1735
scalar HighwayScenario1.node[35].nic.mac1609_4 SlotsBackoff 2633
scalar HighwayScenario1.node[35].nic.mac1609_4 NumInternalContention 0
scalar HighwayScenario1.node[35].nic.mac1609_4 totalBusyTime 14.936745285554
scalar HighwayScenario1.node[35].veinsmobility startTime 71
scalar HighwayScenario1.node[35].veinsmobility totalTime 109
scalar HighwayScenario1.node[35].veinsmobility stopTime 180.71498502292
scalar HighwayScenario1.node[35].veinsmobility minSpeed 0
scalar HighwayScenario1.node[35].veinsmobility maxSpeed 32.385281281379
scalar HighwayScenario1.node[35].veinsmobility totalDistance 1231.2212355703
scalar HighwayScenario1.node[35].veinsmobility totalCO2Emission 515.05974932857
scalar HighwayScenario1.node[37].appl generatedWSMs 0
scalar HighwayScenario1.node[37].appl receivedWSMs 14
scalar HighwayScenario1.node[37].appl generatedBSMs 1077
scalar HighwayScenario1.node[37].appl receivedBSMs 15143
scalar HighwayScenario1.node[37].appl generatedWSAs 0
scalar HighwayScenario1.node[37].appl receivedWSAs 0
scalar HighwayScenario1.node[37].appl delayBSM_P1 0.00098764131546404
scalar HighwayScenario1.node[37].appl delayBSM_P2 0.0010166400809286
scalar HighwayScenario1.node[37].nic.phy80211p busyTime 0.12543799729563
scalar HighwayScenario1.node[37].nic.mac1609_4 ReceivedUnicastPackets 0
scalar HighwayScenario1.node[37].nic.mac1609_4 ReceivedBroadcasts 15157
scalar HighwayScenario1.node[37].nic.mac1609_4 SentPackets 1077
scalar HighwayScenario1.node[37].nic.mac1609_4 SNIRLostPackets 194
scalar HighwayScenario1.node[37].nic.mac1609_4 RXTXLostPackets 0
scalar HighwayScenario1.node[37].nic.mac1609_4 TotalLostPackets 194
scalar HighwayScenario1.node[37].nic.mac1609_4 DroppedPacketsInMac 0
scalar HighwayScenario1.node[37].nic.mac1609_4 TooLittleTime 0
scalar HighwayScenario1.node[37].nic.mac1609_4 TimesIntoBackoff 1077
scalar HighwayScenario1.node[37].nic.mac1609_4 SlotsBackoff 1568
scalar HighwayScenario1.node[37].nic.mac1609_4 NumInternalContention 0
scalar HighwayScenario1.node[37].nic.mac1609_4 totalBusyTime 14.353909096141
scalar HighwayScenario1.node[37].veinsmobility startTime 73
scalar HighwayScenario1.node[37].veinsmobility totalTime 107
scalar HighwayScenario1.node[37].veinsmobility stopTime 180.71498502292
scalar HighwayScenario1.node[37].veinsmobility minSpeed 0
scalar HighwayScenario1.node[37].veinsmobility maxSpeed 30.589133684705
scalar HighwayScenario1.node[37].veinsmobility totalDistance 1272.4261676612
scalar HighwayScenario1.node[37].veinsmobility totalCO2Emission 430.05789561605
scalar HighwayScenario1.node[38].appl generatedWSMs 0
scalar HighwayScenario1.node[38].appl receivedWSMs 12
scalar HighwayScenario1.node[38].appl generatedBSMs 1057
scalar HighwayScenario1.node[38].appl receivedBSMs 11036
scalar HighwayScenario1.node[38].appl generatedWSAs 0
scalar HighwayScenario1.node[38].appl receivedWSAs 0
scalar HighwayScenario1.node[38].appl delayBSM_P1 0.00098475717284161
scalar HighwayScenario1.node[38].appl delayBSM_P2 0.00101733722
scalar HighwayScenario1.node[38].nic.phy80211p busyTime 0.11119346985155
scalar HighwayScenario1.node[38].nic.mac1609_4 ReceivedUnicastPackets 0
scalar HighwayScenario1.node[38].nic.mac1609_4 ReceivedBroadcasts 11048
scalar HighwayScenario1.node[38].nic.mac1609_4 SentPackets 1057
scalar HighwayScenario1.node[38].nic.mac1609_4 SNIRLostPackets 2307
scalar HighwayScenario1.node[38].nic.mac1609_4 RXTXLostPackets 0
scalar HighwayScenario1.node[38].nic.mac1609_4 TotalLostPackets 2307
scalar HighwayScenario1.node[38].nic.mac1609_4 DroppedPacketsInMac 0
scalar HighwayScenario1.node[38].nic.mac1609_4 TooLittleTime 0
scalar HighwayScenario1.node[38].nic.mac1609_4 TimesIntoBackoff 1057
scalar HighwayScenario1.node[38].nic.mac1609_4 SlotsBackoff 1572
scalar HighwayScenario1.node[38].nic.mac1609_4 NumInternalContention 0
scalar HighwayScenario1.node[38].nic.mac1609_4 totalBusyTime 12.025153118747
scalar HighwayScenario1.node[38].veinsmobility startTime 75
scalar HighwayScenario1.node[38].veinsmobility totalTime 105
scalar HighwayScenario1.node[38].veinsmobility stopTime 180.71498502292
scalar HighwayScenario1.node[38].veinsmobility minSpeed 0
scalar HighwayScenario1.node[38].veinsmobility maxSpeed 35.929113717391
scalar HighwayScenario1.node[38].veinsmobility totalDistance 2186.8322393937
scalar HighwayScenario1.node[38].veinsmobility totalCO2Emission 599.14106915305
scalar HighwayScenario1.node[39].appl generatedWSMs 0
scalar HighwayScenario1.node[39].appl receivedWSMs 17
scalar HighwayScenario1.node[39].appl generatedBSMs 1037
scalar HighwayScenario1.node[39].appl receivedBSMs 11364
scalar HighwayScenario1.node[39].appl generatedWSAs 0
scalar HighwayScenario1.node[39].appl receivedWSAs 0
scalar HighwayScenario1.node[39].appl delayBSM_P1 0.001032771896568
scalar HighwayScenario1.node[39].appl delayBSM_P2 0.0010170239000588
scalar HighwayScenario1.node[39].nic.phy80211p busyTime 0.10312816414754
scalar HighwayScenario1.node[39].nic.mac1609_4 ReceivedUnicastPackets 0
scalar HighwayScenario1.node[39].nic.mac1609_4 ReceivedBroadcasts 11381
scalar HighwayScenario1.node[39].nic.mac1609_4 SentPackets 1037
scalar HighwayScenario1.node[39].nic.mac1609_4 SNIRLostPackets 771
scalar HighwayScenario1.node[39].nic.mac1609_4 RXTXLostPackets 0
scalar HighwayScenario1.node[39].nic.mac1609_4 TotalLostPackets 771
scalar HighwayScenario1.node[39].nic.mac1609_4 DroppedPacketsInMac 0
scalar HighwayScenario1.node[39].nic.mac1609_4 TooLittleTime 0
scalar HighwayScenario1.node[39].nic.mac1609_4 TimesIntoBackoff 1037
scalar HighwayScenario1.node[39].nic.mac1609_4 SlotsBackoff 1624
scalar HighwayScenario1.node[39].nic.mac1609_4 NumInternalContention 0
scalar HighwayScenario1.node[39].nic.mac1609_4 totalBusyTime 11.393933495493
scalar HighwayScenario1.node[39].veinsmobility startTime 77
scalar HighwayScenario1.node[39].veinsmobility totalTime 103
scalar HighwayScenario1.node[39].veinsmobility stopTime 180.71498502292
scalar HighwayScenario1.node[39].veinsmobility minSpeed 19.868735266224
scalar HighwayScenario1.node[39].veinsmobility maxSpeed 29.878403881011
scalar HighwayScenario1.node[39].veinsmobility totalDistance 2987.2088547176
scalar HighwayScenario1.node[39].veinsmobility totalCO2Emission 541.83438663855
scalar HighwayScenario1.node[40].appl generatedWSMs 0
scalar HighwayScenario1.node[40].appl receivedWSMs 12
scalar HighwayScenario1.node[40].appl generatedBSMs 1017
scalar HighwayScenario1.node[40].appl receivedBSMs 11927
scalar HighwayScenario1.node[40].appl generatedWSAs 0
scalar HighwayScenario1.node[40].appl receivedWSAs 0
scalar HighwayScenario1.node[40].appl delayBSM_P1 0.0010258541867156
scalar HighwayScenario1.node[40].appl delayBSM_P2 0.0010173116913333
scalar HighwayScenario1.node[40].nic.phy80211p busyTime 0.10854109645216
scalar HighwayScenario1.node[40].nic.mac1609_4 ReceivedUnicastPackets 0
scalar HighwayScenario1.node[40].nic.mac1609_4 ReceivedBroadcasts 11939
scalar HighwayScenario1.node[40].nic.mac1609_4 SentPackets 1017
scalar HighwayScenario1.node[40].nic.mac1609_4 SNIRLostPackets 605
scalar HighwayScenario1.node[40].nic.mac1609_4 RXTXLostPackets 0
scalar HighwayScenario1.node[40].nic.mac1609_4 TotalLostPackets 605
scalar HighwayScenario1.node[40].nic.mac1609_4 DroppedPacketsInMac 0
scalar HighwayScenario1.node[40].nic.mac1609_4 TooLittleTime 0
scalar HighwayScenario1.node[40].nic.mac1609_4 TimesIntoBackoff 1134
scalar HighwayScenario1.node[40].nic.mac1609_4 SlotsBackoff 1698
scalar HighwayScenario1.node[40].nic.mac1609_4 NumInternalContention 0
scalar HighwayScenario1.node[40].nic.mac1609_4 totalBusyTime 11.73823301254
scalar HighwayScenario1.node[40].veinsmobility startTime 79
scalar HighwayScenario1.node[40].veinsmobility totalTime 101
scalar HighwayScenario1.node[40].veinsmobility stopTime 180.71498502292
scalar HighwayScenario1.node[40].veinsmobility minSpeed 24.750062368937
scalar HighwayScenario1.node[40].veinsmobility maxSpeed 30.851861233068
scalar HighwayScenario1.node[40].veinsmobility totalDistance 2948.1773251176
scalar HighwayScenario1.node[40].veinsmobility totalCO2Emission 560.35334182902
scalar HighwayScenario1.node[41].appl generatedWSMs 0
scalar HighwayScenario1.node[41].appl receivedWSMs 8
scalar HighwayScenario1.node[41].appl generatedBSMs 997
scalar HighwayScenario1.node[41].appl receivedBSMs 12305
scalar HighwayScenario1.node[41].appl generatedWSAs 0
scalar HighwayScenario1.node[41].appl receivedWSAs 0
scalar HighwayScenario1.node[41].appl delayBSM_P1 0.00095527861012353
scalar HighwayScenario1.node[41].appl delayBSM_P2 0.00101840779325
scalar HighwayScenario1.node[41].nic.phy80211p busyTime 0.11494023688986
scalar HighwayScenario1.node[41].nic.mac1609_4 ReceivedUnicastPackets 0
scalar HighwayScenario1.node[41].nic.mac1609_4 ReceivedBroadcasts 12313
scalar HighwayScenario1.node[41].nic.mac1609_4 SentPackets 997
scalar HighwayScenario1.node[41].nic.mac1609_4 SNIRLostPackets 610
scalar HighwayScenario1.node[41].nic.mac1609_4 RXTXLostPackets 135
scalar HighwayScenario1.node[41].nic.mac1609_4 TotalLostPackets 745
scalar HighwayScenario1.node[41].nic.mac1609_4 DroppedPacketsInMac 0
scalar HighwayScenario1.node[41].nic.mac1609_4 TooLittleTime 0
scalar HighwayScenario1.node[41].nic.mac1609_4 TimesIntoBackoff 1954
scalar HighwayScenario1.node[41].nic.mac1609_4 SlotsBackoff 2980
scalar HighwayScenario1.node[41].nic.mac1609_4 NumInternalContention 0
scalar HighwayScenario1.node[41].nic.mac1609_4 totalBusyTime 12.075621046718
scalar HighwayScenario1.node[41].veinsmobility startTime 81
scalar HighwayScenario1.node[41].veinsmobility totalTime 99
scalar HighwayScenario1.node[41].veinsmobility stopTime 180.71498502292
scalar HighwayScenario1.node[41].veinsmobility minSpeed 27.142372767575
scalar HighwayScenario1.node[41].veinsmobility maxSpeed 31.666920582421
scalar HighwayScenario1.node[41].veinsmobility totalDistance 2909.3638618657
scalar HighwayScenario1.node[41].veinsmobility totalCO2Emission 577.42664400214
scalar HighwayScenario1.node[42].appl generatedWSMs 0
scalar HighwayScenario1.node[42].appl receivedWSMs 3
scalar HighwayScenario1.node[42].appl generatedBSMs 977
scalar HighwayScenario1.node[42].appl receivedBSMs 12547
scalar HighwayScenario1.node[42].appl generatedWSAs 0
scalar HighwayScenario1.node[42].appl receivedWSAs 0
scalar HighwayScenario1.node[42].appl delayBSM_P1 0.0010158250016576
scalar HighwayScenario1.node[42].appl delayBSM_P2 0.001019904557
scalar HighwayScenario1.node[42].nic.phy80211p busyTime 0.12248258542122
scalar HighwayScenario1.node[42].nic.mac1609_4 ReceivedUnicastPackets 0
scalar HighwayScenario1.node[42].nic.mac1609_4 ReceivedBroadcasts 12550
scalar HighwayScenario1.node[42].nic.mac1609_4 SentPackets 977
scalar HighwayScenario1.node[42].nic.mac1609_4 SNIRLostPackets 1050
scalar HighwayScenario1.node[42].nic.mac1609_4 RXTXLostPackets 0
scalar HighwayScenario1.node[42].nic.mac1609_4 TotalLostPackets 1050
[...]
scalar HighwayScenario1.node[8].appl delayBSM_P1 0.00093465981371864
scalar HighwayScenario1.node[8].appl delayBSM_P2 0.001014054412625
scalar HighwayScenario1.node[8].nic.phy80211p busyTime 0.11357337874354
scalar HighwayScenario1.node[8].nic.mac1609_4 ReceivedUnicastPackets 0
scalar HighwayScenario1.node[8].nic.mac1609_4 ReceivedBroadcasts 18273
scalar HighwayScenario1.node[8].nic.mac1609_4 SentPackets 1638
scalar HighwayScenario1.node[8].nic.mac1609_4 SNIRLostPackets 2855
scalar HighwayScenario1.node[8].nic.mac1609_4 RXTXLostPackets 0
scalar HighwayScenario1.node[8].nic.mac1609_4 TotalLostPackets 2855
scalar HighwayScenario1.node[8].nic.mac1609_4 DroppedPacketsInMac 0
scalar HighwayScenario1.node[8].nic.mac1609_4 TooLittleTime 0
scalar HighwayScenario1.node[8].nic.mac1609_4 TimesIntoBackoff 2576
scalar HighwayScenario1.node[8].nic.mac1609_4 SlotsBackoff 3874
scalar HighwayScenario1.node[8].nic.mac1609_4 NumInternalContention 0
scalar HighwayScenario1.node[8].nic.mac1609_4 totalBusyTime 18.787142
scalar HighwayScenario1.node[8].veinsmobility startTime 17
scalar HighwayScenario1.node[8].veinsmobility totalTime 163
scalar HighwayScenario1.node[8].veinsmobility stopTime 180.71498502292
scalar HighwayScenario1.node[8].veinsmobility minSpeed 29.493486573128
scalar HighwayScenario1.node[8].veinsmobility maxSpeed 30.737462720216
scalar HighwayScenario1.node[8].veinsmobility totalDistance 4911.8130874186
scalar HighwayScenario1.node[8].veinsmobility totalCO2Emission 852.61703236801
scalar HighwayScenario1.node[81].appl generatedWSMs 0
scalar HighwayScenario1.node[81].appl receivedWSMs 0
scalar HighwayScenario1.node[81].appl generatedBSMs 197
scalar HighwayScenario1.node[81].appl receivedBSMs 1639
scalar HighwayScenario1.node[81].appl generatedWSAs 0
scalar HighwayScenario1.node[81].appl receivedWSAs 0
scalar HighwayScenario1.node[81].appl delayBSM_P1 0.0010284178374924
scalar HighwayScenario1.node[81].appl delayBSM_P2 0
scalar HighwayScenario1.node[81].nic.phy80211p busyTime 0.087174299042155
scalar HighwayScenario1.node[81].nic.mac1609_4 ReceivedUnicastPackets 0
scalar HighwayScenario1.node[81].nic.mac1609_4 ReceivedBroadcasts 1639
scalar HighwayScenario1.node[81].nic.mac1609_4 SentPackets 197
scalar HighwayScenario1.node[81].nic.mac1609_4 SNIRLostPackets 313
scalar HighwayScenario1.node[81].nic.mac1609_4 RXTXLostPackets 14
scalar HighwayScenario1.node[81].nic.mac1609_4 TotalLostPackets 327
scalar HighwayScenario1.node[81].nic.mac1609_4 DroppedPacketsInMac 0
scalar HighwayScenario1.node[81].nic.mac1609_4 TooLittleTime 0
scalar HighwayScenario1.node[81].nic.mac1609_4 TimesIntoBackoff 394
scalar HighwayScenario1.node[81].nic.mac1609_4 SlotsBackoff 619
scalar HighwayScenario1.node[81].nic.mac1609_4 NumInternalContention 0
scalar HighwayScenario1.node[81].nic.mac1609_4 totalBusyTime 1.805077
scalar HighwayScenario1.node[81].veinsmobility startTime 161
scalar HighwayScenario1.node[81].veinsmobility totalTime 19
scalar HighwayScenario1.node[81].veinsmobility stopTime 180.71498502292
scalar HighwayScenario1.node[81].veinsmobility minSpeed 32.931355994664
scalar HighwayScenario1.node[81].veinsmobility maxSpeed 34.083929459451
scalar HighwayScenario1.node[81].veinsmobility totalDistance 638.48442446331
scalar HighwayScenario1.node[81].veinsmobility totalCO2Emission 120.64368195958
scalar HighwayScenario1.node[82].appl generatedWSMs 0
scalar HighwayScenario1.node[82].appl receivedWSMs 0
scalar HighwayScenario1.node[82].appl generatedBSMs 177
scalar HighwayScenario1.node[82].appl receivedBSMs 1527
scalar HighwayScenario1.node[82].appl generatedWSAs 0
scalar HighwayScenario1.node[82].appl receivedWSAs 0
scalar HighwayScenario1.node[82].appl delayBSM_P1 0.0010144640788415
scalar HighwayScenario1.node[82].appl delayBSM_P2 0
scalar HighwayScenario1.node[82].nic.phy80211p busyTime 0.077444039508058
scalar HighwayScenario1.node[82].nic.mac1609_4 ReceivedUnicastPackets 0
scalar HighwayScenario1.node[82].nic.mac1609_4 ReceivedBroadcasts 1527
scalar HighwayScenario1.node[82].nic.mac1609_4 SentPackets 177
scalar HighwayScenario1.node[82].nic.mac1609_4 SNIRLostPackets 31
scalar HighwayScenario1.node[82].nic.mac1609_4 RXTXLostPackets 0
scalar HighwayScenario1.node[82].nic.mac1609_4 TotalLostPackets 31
scalar HighwayScenario1.node[82].nic.mac1609_4 DroppedPacketsInMac 0
scalar HighwayScenario1.node[82].nic.mac1609_4 TooLittleTime 0
scalar HighwayScenario1.node[82].nic.mac1609_4 TimesIntoBackoff 177
scalar HighwayScenario1.node[82].nic.mac1609_4 SlotsBackoff 268
scalar HighwayScenario1.node[82].nic.mac1609_4 NumInternalContention 0
scalar HighwayScenario1.node[82].nic.mac1609_4 totalBusyTime 1.525217
scalar HighwayScenario1.node[82].veinsmobility startTime 163
scalar HighwayScenario1.node[82].veinsmobility totalTime 17
scalar HighwayScenario1.node[82].veinsmobility stopTime 180.71498502292
scalar HighwayScenario1.node[82].veinsmobility minSpeed 31.41530806508
scalar HighwayScenario1.node[82].veinsmobility maxSpeed 32.62481374597
scalar HighwayScenario1.node[82].veinsmobility totalDistance 543.62952822955
scalar HighwayScenario1.node[82].veinsmobility totalCO2Emission 103.25522891816
scalar HighwayScenario1.node[83].appl generatedWSMs 0
scalar HighwayScenario1.node[83].appl receivedWSMs 0
scalar HighwayScenario1.node[83].appl generatedBSMs 157
scalar HighwayScenario1.node[83].appl receivedBSMs 1432
scalar HighwayScenario1.node[83].appl generatedWSAs 0
scalar HighwayScenario1.node[83].appl receivedWSAs 0
scalar HighwayScenario1.node[83].appl delayBSM_P1 0.00096526910503911
scalar HighwayScenario1.node[83].appl delayBSM_P2 0
scalar HighwayScenario1.node[83].nic.phy80211p busyTime 0.080580414054023
scalar HighwayScenario1.node[83].nic.mac1609_4 ReceivedUnicastPackets 0
scalar HighwayScenario1.node[83].nic.mac1609_4 ReceivedBroadcasts 1432
scalar HighwayScenario1.node[83].nic.mac1609_4 SentPackets 157
scalar HighwayScenario1.node[83].nic.mac1609_4 SNIRLostPackets 6
scalar HighwayScenario1.node[83].nic.mac1609_4 RXTXLostPackets 0
scalar HighwayScenario1.node[83].nic.mac1609_4 TotalLostPackets 6
scalar HighwayScenario1.node[83].nic.mac1609_4 DroppedPacketsInMac 0
scalar HighwayScenario1.node[83].nic.mac1609_4 TooLittleTime 0
scalar HighwayScenario1.node[83].nic.mac1609_4 TimesIntoBackoff 294
scalar HighwayScenario1.node[83].nic.mac1609_4 SlotsBackoff 416
scalar HighwayScenario1.node[83].nic.mac1609_4 NumInternalContention 0
scalar HighwayScenario1.node[83].nic.mac1609_4 totalBusyTime 1.403757
scalar HighwayScenario1.node[83].veinsmobility startTime 165
scalar HighwayScenario1.node[83].veinsmobility totalTime 15
scalar HighwayScenario1.node[83].veinsmobility stopTime 180.71498502292
scalar HighwayScenario1.node[83].veinsmobility minSpeed 28.801483972425
scalar HighwayScenario1.node[83].veinsmobility maxSpeed 29.929372668635
scalar HighwayScenario1.node[83].veinsmobility totalDistance 439.51260491944
scalar HighwayScenario1.node[83].veinsmobility totalCO2Emission 68.8745974009
scalar HighwayScenario1.node[84].appl generatedWSMs 0
scalar HighwayScenario1.node[84].appl receivedWSMs 0
scalar HighwayScenario1.node[84].appl generatedBSMs 137
scalar HighwayScenario1.node[84].appl receivedBSMs 1225
scalar HighwayScenario1.node[84].appl generatedWSAs 0
scalar HighwayScenario1.node[84].appl receivedWSAs 0
scalar HighwayScenario1.node[84].appl delayBSM_P1 0.0010050979584751
scalar HighwayScenario1.node[84].appl delayBSM_P2 0
scalar HighwayScenario1.node[84].nic.phy80211p busyTime 0.078664322140833
scalar HighwayScenario1.node[84].nic.mac1609_4 ReceivedUnicastPackets 0
scalar HighwayScenario1.node[84].nic.mac1609_4 ReceivedBroadcasts 1225
scalar HighwayScenario1.node[84].nic.mac1609_4 SentPackets 137
scalar HighwayScenario1.node[84].nic.mac1609_4 SNIRLostPackets 0
scalar HighwayScenario1.node[84].nic.mac1609_4 RXTXLostPackets 0
scalar HighwayScenario1.node[84].nic.mac1609_4 TotalLostPackets 0
scalar HighwayScenario1.node[84].nic.mac1609_4 DroppedPacketsInMac 0
scalar HighwayScenario1.node[84].nic.mac1609_4 TooLittleTime 0
scalar HighwayScenario1.node[84].nic.mac1609_4 TimesIntoBackoff 137
scalar HighwayScenario1.node[84].nic.mac1609_4 SlotsBackoff 205
scalar HighwayScenario1.node[84].nic.mac1609_4 NumInternalContention 0
scalar HighwayScenario1.node[84].nic.mac1609_4 totalBusyTime 1.198697
scalar HighwayScenario1.node[84].veinsmobility startTime 167
scalar HighwayScenario1.node[84].veinsmobility totalTime 13
scalar HighwayScenario1.node[84].veinsmobility stopTime 180.71498502292
scalar HighwayScenario1.node[84].veinsmobility minSpeed 30.628089538664
scalar HighwayScenario1.node[84].veinsmobility maxSpeed 34.043112447888
scalar HighwayScenario1.node[84].veinsmobility totalDistance 428.22898806535
scalar HighwayScenario1.node[84].veinsmobility totalCO2Emission 80.317255273176
scalar HighwayScenario1.node[85].appl generatedWSMs 0
scalar HighwayScenario1.node[85].appl receivedWSMs 0
scalar HighwayScenario1.node[85].appl generatedBSMs 118
scalar HighwayScenario1.node[85].appl receivedBSMs 979
scalar HighwayScenario1.node[85].appl generatedWSAs 0
scalar HighwayScenario1.node[85].appl receivedWSAs 0
scalar HighwayScenario1.node[85].appl delayBSM_P1 0.0010145657989888
scalar HighwayScenario1.node[85].appl delayBSM_P2 0
scalar HighwayScenario1.node[85].nic.phy80211p busyTime 0.074216057323049
scalar HighwayScenario1.node[85].nic.mac1609_4 ReceivedUnicastPackets 0
scalar HighwayScenario1.node[85].nic.mac1609_4 ReceivedBroadcasts 979
scalar HighwayScenario1.node[85].nic.mac1609_4 SentPackets 118
scalar HighwayScenario1.node[85].nic.mac1609_4 SNIRLostPackets 8
scalar HighwayScenario1.node[85].nic.mac1609_4 RXTXLostPackets 0
scalar HighwayScenario1.node[85].nic.mac1609_4 TotalLostPackets 8
scalar HighwayScenario1.node[85].nic.mac1609_4 DroppedPacketsInMac 0
scalar HighwayScenario1.node[85].nic.mac1609_4 TooLittleTime 0
scalar HighwayScenario1.node[85].nic.mac1609_4 TimesIntoBackoff 118
scalar HighwayScenario1.node[85].nic.mac1609_4 SlotsBackoff 199
scalar HighwayScenario1.node[85].nic.mac1609_4 NumInternalContention 0
scalar HighwayScenario1.node[85].nic.mac1609_4 totalBusyTime 0.972518
scalar HighwayScenario1.node[85].veinsmobility startTime 169
scalar HighwayScenario1.node[85].veinsmobility totalTime 11
scalar HighwayScenario1.node[85].veinsmobility stopTime 180.71498502292
scalar HighwayScenario1.node[85].veinsmobility minSpeed 29.906135387488
scalar HighwayScenario1.node[85].veinsmobility maxSpeed 31.056963507204
scalar HighwayScenario1.node[85].veinsmobility totalDistance 333.85506761501
scalar HighwayScenario1.node[85].veinsmobility totalCO2Emission 59.887445220697
scalar HighwayScenario1.node[86].appl generatedWSMs 0
scalar HighwayScenario1.node[86].appl receivedWSMs 0
scalar HighwayScenario1.node[86].appl generatedBSMs 98
scalar HighwayScenario1.node[86].appl receivedBSMs 716
scalar HighwayScenario1.node[86].appl generatedWSAs 0
scalar HighwayScenario1.node[86].appl receivedWSAs 0
scalar HighwayScenario1.node[86].appl delayBSM_P1 0.0010301909101522
scalar HighwayScenario1.node[86].appl delayBSM_P2 0
scalar HighwayScenario1.node[86].nic.phy80211p busyTime 0.069838501901858
scalar HighwayScenario1.node[86].nic.mac1609_4 ReceivedUnicastPackets 0
scalar HighwayScenario1.node[86].nic.mac1609_4 ReceivedBroadcasts 716
scalar HighwayScenario1.node[86].nic.mac1609_4 SentPackets 98
scalar HighwayScenario1.node[86].nic.mac1609_4 SNIRLostPackets 55
scalar HighwayScenario1.node[86].nic.mac1609_4 RXTXLostPackets 0
scalar HighwayScenario1.node[86].nic.mac1609_4 TotalLostPackets 55
scalar HighwayScenario1.node[86].nic.mac1609_4 DroppedPacketsInMac 0
scalar HighwayScenario1.node[86].nic.mac1609_4 TooLittleTime 0
scalar HighwayScenario1.node[86].nic.mac1609_4 TimesIntoBackoff 97
scalar HighwayScenario1.node[86].nic.mac1609_4 SlotsBackoff 143
scalar HighwayScenario1.node[86].nic.mac1609_4 NumInternalContention 0
scalar HighwayScenario1.node[86].nic.mac1609_4 totalBusyTime 0.763937
scalar HighwayScenario1.node[86].veinsmobility startTime 171
scalar HighwayScenario1.node[86].veinsmobility totalTime 9
scalar HighwayScenario1.node[86].veinsmobility stopTime 180.71498502292
scalar HighwayScenario1.node[86].veinsmobility minSpeed 31.941978809514
scalar HighwayScenario1.node[86].veinsmobility maxSpeed 34.367466013258
scalar HighwayScenario1.node[86].veinsmobility totalDistance 298.2505785246
scalar HighwayScenario1.node[86].veinsmobility totalCO2Emission 52.824829382238
scalar HighwayScenario1.node[87].appl generatedWSMs 0
scalar HighwayScenario1.node[87].appl receivedWSMs 0
scalar HighwayScenario1.node[87].appl generatedBSMs 77
scalar HighwayScenario1.node[87].appl receivedBSMs 497
scalar HighwayScenario1.node[87].appl generatedWSAs 0
scalar HighwayScenario1.node[87].appl receivedWSAs 0
scalar HighwayScenario1.node[87].appl delayBSM_P1 0.00093882191125151
scalar HighwayScenario1.node[87].appl delayBSM_P2 0
scalar HighwayScenario1.node[87].nic.phy80211p busyTime 0.056803739566289
scalar HighwayScenario1.node[87].nic.mac1609_4 ReceivedUnicastPackets 0
scalar HighwayScenario1.node[87].nic.mac1609_4 ReceivedBroadcasts 497
scalar HighwayScenario1.node[87].nic.mac1609_4 SentPackets 77
scalar HighwayScenario1.node[87].nic.mac1609_4 SNIRLostPackets 0
scalar HighwayScenario1.node[87].nic.mac1609_4 RXTXLostPackets 0
scalar HighwayScenario1.node[87].nic.mac1609_4 TotalLostPackets 0
scalar HighwayScenario1.node[87].nic.mac1609_4 DroppedPacketsInMac 0
scalar HighwayScenario1.node[87].nic.mac1609_4 TooLittleTime 0
scalar HighwayScenario1.node[87].nic.mac1609_4 TimesIntoBackoff 77
scalar HighwayScenario1.node[87].nic.mac1609_4 SlotsBackoff 132
scalar HighwayScenario1.node[87].nic.mac1609_4 NumInternalContention 0
scalar HighwayScenario1.node[87].nic.mac1609_4 totalBusyTime 0.505197
scalar HighwayScenario1.node[87].veinsmobility startTime 173
scalar HighwayScenario1.node[87].veinsmobility totalTime 7
scalar HighwayScenario1.node[87].veinsmobility stopTime 180.71498502292
scalar HighwayScenario1.node[87].veinsmobility minSpeed 32.189498037431
scalar HighwayScenario1.node[87].veinsmobility maxSpeed 33.154375242692
scalar HighwayScenario1.node[87].veinsmobility totalDistance 228.90082577021
scalar HighwayScenario1.node[87].veinsmobility totalCO2Emission 33.823961572715
scalar HighwayScenario1.node[88].appl generatedWSMs 0
scalar HighwayScenario1.node[88].appl receivedWSMs 0
scalar HighwayScenario1.node[88].appl generatedBSMs 57
scalar HighwayScenario1.node[88].appl receivedBSMs 397
scalar HighwayScenario1.node[88].appl generatedWSAs 0
scalar HighwayScenario1.node[88].appl receivedWSAs 0
scalar HighwayScenario1.node[88].appl delayBSM_P1 0.00093511584484887
scalar HighwayScenario1.node[88].appl delayBSM_P2 0
scalar HighwayScenario1.node[88].nic.phy80211p busyTime 0.061284500063449
scalar HighwayScenario1.node[88].nic.mac1609_4 ReceivedUnicastPackets 0
scalar HighwayScenario1.node[88].nic.mac1609_4 ReceivedBroadcasts 397
scalar HighwayScenario1.node[88].nic.mac1609_4 SentPackets 57
scalar HighwayScenario1.node[88].nic.mac1609_4 SNIRLostPackets 0
scalar HighwayScenario1.node[88].nic.mac1609_4 RXTXLostPackets 0
scalar HighwayScenario1.node[88].nic.mac1609_4 TotalLostPackets 0
scalar HighwayScenario1.node[88].nic.mac1609_4 DroppedPacketsInMac 0
scalar HighwayScenario1.node[88].nic.mac1609_4 TooLittleTime 0
scalar HighwayScenario1.node[88].nic.mac1609_4 TimesIntoBackoff 57
scalar HighwayScenario1.node[88].nic.mac1609_4 SlotsBackoff 73
scalar HighwayScenario1.node[88].nic.mac1609_4 NumInternalContention 0
scalar HighwayScenario1.node[88].nic.mac1609_4 totalBusyTime 0.399577
scalar HighwayScenario1.node[88].veinsmobility startTime 175
scalar HighwayScenario1.node[88].veinsmobility totalTime 5
scalar HighwayScenario1.node[88].veinsmobility stopTime 180.71498502292
scalar HighwayScenario1.node[88].veinsmobility minSpeed 33.315822769002
scalar HighwayScenario1.node[88].veinsmobility maxSpeed 34.111733043321
scalar HighwayScenario1.node[88].veinsmobility totalDistance 168.66518817661
scalar HighwayScenario1.node[88].veinsmobility totalCO2Emission 25.702317835016
scalar HighwayScenario1.node[89].appl generatedWSMs 0
scalar HighwayScenario1.node[89].appl receivedWSMs 0
scalar HighwayScenario1.node[89].appl generatedBSMs 37
scalar HighwayScenario1.node[89].appl receivedBSMs 240
scalar HighwayScenario1.node[89].appl generatedWSAs 0
scalar HighwayScenario1.node[89].appl receivedWSAs 0
scalar HighwayScenario1.node[89].appl delayBSM_P1 0.00093822250670833
scalar HighwayScenario1.node[89].appl delayBSM_P2 0
scalar HighwayScenario1.node[89].nic.phy80211p busyTime 0.057087713326251
scalar HighwayScenario1.node[89].nic.mac1609_4 ReceivedUnicastPackets 0
scalar HighwayScenario1.node[89].nic.mac1609_4 ReceivedBroadcasts 240
scalar HighwayScenario1.node[89].nic.mac1609_4 SentPackets 37
scalar HighwayScenario1.node[89].nic.mac1609_4 SNIRLostPackets 0
scalar HighwayScenario1.node[89].nic.mac1609_4 RXTXLostPackets 0
scalar HighwayScenario1.node[89].nic.mac1609_4 TotalLostPackets 0
scalar HighwayScenario1.node[89].nic.mac1609_4 DroppedPacketsInMac 0
scalar HighwayScenario1.node[89].nic.mac1609_4 TooLittleTime 0
scalar HighwayScenario1.node[89].nic.mac1609_4 TimesIntoBackoff 37
scalar HighwayScenario1.node[89].nic.mac1609_4 SlotsBackoff 71
scalar HighwayScenario1.node[89].nic.mac1609_4 NumInternalContention 0
scalar HighwayScenario1.node[89].nic.mac1609_4 totalBusyTime 0.243797
scalar HighwayScenario1.node[89].veinsmobility startTime 177
scalar HighwayScenario1.node[89].veinsmobility totalTime 3
scalar HighwayScenario1.node[89].veinsmobility stopTime 180.71498502292
scalar HighwayScenario1.node[89].veinsmobility minSpeed 31.186209731399
scalar HighwayScenario1.node[89].veinsmobility maxSpeed 31.456548659202
scalar HighwayScenario1.node[89].veinsmobility totalDistance 94.025601204814
scalar HighwayScenario1.node[89].veinsmobility totalCO2Emission 11.490864925937
scalar HighwayScenario1.node[90].appl generatedWSMs 0
scalar HighwayScenario1.node[90].appl receivedWSMs 0
scalar HighwayScenario1.node[90].appl generatedBSMs 17
scalar HighwayScenario1.node[90].appl receivedBSMs 103
scalar HighwayScenario1.node[90].appl generatedWSAs 0
scalar HighwayScenario1.node[90].appl receivedWSAs 0
scalar HighwayScenario1.node[90].appl delayBSM_P1 0.00088767488513592
scalar HighwayScenario1.node[90].appl delayBSM_P2 0
scalar HighwayScenario1.node[90].nic.phy80211p busyTime 0.053364897521939
scalar HighwayScenario1.node[90].nic.mac1609_4 ReceivedUnicastPackets 0
scalar HighwayScenario1.node[90].nic.mac1609_4 ReceivedBroadcasts 103
scalar HighwayScenario1.node[90].nic.mac1609_4 SentPackets 17
scalar HighwayScenario1.node[90].nic.mac1609_4 SNIRLostPackets 0
scalar HighwayScenario1.node[90].nic.mac1609_4 RXTXLostPackets 0
scalar HighwayScenario1.node[90].nic.mac1609_4 TotalLostPackets 0
scalar HighwayScenario1.node[90].nic.mac1609_4 DroppedPacketsInMac 0
scalar HighwayScenario1.node[90].nic.mac1609_4 TooLittleTime 0
scalar HighwayScenario1.node[90].nic.mac1609_4 TimesIntoBackoff 17
scalar HighwayScenario1.node[90].nic.mac1609_4 SlotsBackoff 19
scalar HighwayScenario1.node[90].nic.mac1609_4 NumInternalContention 0
scalar HighwayScenario1.node[90].nic.mac1609_4 totalBusyTime 0.105617
scalar HighwayScenario1.node[90].veinsmobility startTime 179
scalar HighwayScenario1.node[90].veinsmobility totalTime 1
scalar HighwayScenario1.node[90].veinsmobility stopTime 180.71498502292
scalar HighwayScenario1.node[90].veinsmobility minSpeed 33.278408654446
scalar HighwayScenario1.node[90].veinsmobility maxSpeed 33.278408654446
scalar HighwayScenario1.node[90].veinsmobility totalDistance 33.278408654447
scalar HighwayScenario1.node[90].veinsmobility totalCO2Emission 0

