version 2
run Scenario2_356B-0-20180428-22:57:53-10716
attr configname Scenario2_356B
attr datetime 20180428-22:57:53
attr experiment Scenario2_356B
attr inifile omnetpp.ini
attr iterationvars ""
attr iterationvarsf ""
attr measurement ""
attr network HighwayScenario1
attr processid 10716
attr repetition 0
attr replication #0
attr resultdir results
attr runnumber 0
attr seedset 0
param *.ambulanceNode[*].applType "\"AmbulanceAppLayer\""
param *.ambulanceNode[*].appl.messageLength 356
param *.ambulanceNode[*].appl.signDelay 0.0008
param *.ambulanceNode[*].appl.verifyDelay 0.0030
param *.node[*].applType "\"NormalAppLayer\""
param *.node[*].appl.messageLength 256
param *.node[*].appl.headerLength "80 bit"
param *.node[*].appl.sendBeacons true
param *.node[*].appl.dataOnSch false
param *.node[*].appl.beaconInterval 0.1s
param *.node[*].appl.signDelay 0.0008
param *.node[*].appl.verifyDelay 0.0030
param **.debug false
param **.coreDebug false
param *.playgroundSizeX 5500m
param *.playgroundSizeY 500m
param *.playgroundSizeZ 50m
param *.annotations.draw false
param *.obstacles.debug false
param *.manager.updateInterval 1s
param *.manager.host "\"localhost\""
param *.manager.port 9999
param *.manager.autoShutdown true
param *.manager.launchConfig "xmldoc(\"highway.launchd.xml\")"
param *.connectionManager.sendDirect true
param *.connectionManager.maxInterfDist 2600m
param *.connectionManager.drawMaxIntfDist false
param *.**.nic.mac1609_4.useServiceChannel false
param *.**.nic.mac1609_4.txPower 20mW
param *.**.nic.mac1609_4.bitrate 6Mbps
param *.**.nic.phy80211p.sensitivity -89dBm
param *.**.nic.phy80211p.useThermalNoise true
param *.**.nic.phy80211p.thermalNoise -110dBm
param *.**.nic.phy80211p.decider "xmldoc(\"config.xml\")"
param *.**.nic.phy80211p.analogueModels "xmldoc(\"config.xml\")"
param *.**.nic.phy80211p.usePropagationDelay true
param *.**.nic.phy80211p.antenna "xmldoc(\"antenna.xml\", \"/root/Antenna[@id='monopole']\")"
param *.manager.moduleType "\"ambulance=org.car2x.veins.nodes.Car attacker=org.car2x.veins.nodes.Car *=org.car2x.veins.nodes.Car\""
param *.manager.moduleName "\"ambulance=ambulanceNode attacker=attackerNode *=node\""
param *.node[*].veinsmobilityType.debug true
param *.node[*].veinsmobility.x 0
param *.node[*].veinsmobility.y 0
param *.node[*].veinsmobility.z 1.895
param *.ambulanceNode[*].veinsmobilityType.debug true
param *.ambulanceNode[*].veinsmobility.x 0
param *.ambulanceNode[*].veinsmobility.y 0
param *.ambulanceNode[*].veinsmobility.z 1.895
param *.attackerNode[*].veinsmobilityType.debug true
param *.attackerNode[*].veinsmobility.x 0
param *.attackerNode[*].veinsmobility.y 0
param *.attackerNode[*].veinsmobility.z 1.895

vector 0 HighwayScenario1.node[0].veinsmobility posx ETV
vector 1 HighwayScenario1.node[0].veinsmobility posy ETV
vector 2 HighwayScenario1.node[0].veinsmobility speed ETV
vector 3 HighwayScenario1.node[1].veinsmobility posx ETV
vector 4 HighwayScenario1.node[1].veinsmobility posy ETV
vector 5 HighwayScenario1.node[0].veinsmobility acceleration ETV
vector 6 HighwayScenario1.node[0].veinsmobility co2emission ETV
vector 7 HighwayScenario1.node[1].veinsmobility speed ETV
vector 8 HighwayScenario1.node[2].veinsmobility posx ETV
vector 9 HighwayScenario1.node[2].veinsmobility posy ETV
vector 10 HighwayScenario1.node[1].veinsmobility acceleration ETV
vector 11 HighwayScenario1.node[1].veinsmobility co2emission ETV
vector 12 HighwayScenario1.node[2].veinsmobility speed ETV
vector 13 HighwayScenario1.node[3].veinsmobility posx ETV
vector 14 HighwayScenario1.node[3].veinsmobility posy ETV
vector 15 HighwayScenario1.node[2].veinsmobility acceleration ETV
vector 16 HighwayScenario1.node[2].veinsmobility co2emission ETV
vector 17 HighwayScenario1.node[3].veinsmobility speed ETV
vector 18 HighwayScenario1.node[4].veinsmobility posx ETV
vector 19 HighwayScenario1.node[4].veinsmobility posy ETV
vector 20 HighwayScenario1.node[3].veinsmobility acceleration ETV
vector 21 HighwayScenario1.node[3].veinsmobility co2emission ETV
vector 22 HighwayScenario1.node[4].veinsmobility speed ETV
vector 23 HighwayScenario1.node[5].veinsmobility posx ETV
vector 24 HighwayScenario1.node[5].veinsmobility posy ETV
vector 25 HighwayScenario1.node[4].veinsmobility acceleration ETV
vector 26 HighwayScenario1.node[4].veinsmobility co2emission ETV
vector 27 HighwayScenario1.node[5].veinsmobility speed ETV
vector 28 HighwayScenario1.node[6].veinsmobility posx ETV
vector 29 HighwayScenario1.node[6].veinsmobility posy ETV
vector 30 HighwayScenario1.node[5].veinsmobility acceleration ETV
vector 31 HighwayScenario1.node[5].veinsmobility co2emission ETV
vector 32 HighwayScenario1.node[6].veinsmobility speed ETV
vector 33 HighwayScenario1.node[7].veinsmobility posx ETV
vector 34 HighwayScenario1.node[7].veinsmobility posy ETV
vector 35 HighwayScenario1.node[6].veinsmobility acceleration ETV
vector 36 HighwayScenario1.node[6].veinsmobility co2emission ETV
vector 37 HighwayScenario1.node[7].veinsmobility speed ETV
vector 38 HighwayScenario1.node[8].veinsmobility posx ETV
vector 39 HighwayScenario1.node[8].veinsmobility posy ETV
vector 40 HighwayScenario1.node[7].veinsmobility acceleration ETV
vector 41 HighwayScenario1.node[7].veinsmobility co2emission ETV
vector 42 HighwayScenario1.node[8].veinsmobility speed ETV
vector 43 HighwayScenario1.node[9].veinsmobility posx ETV
vector 44 HighwayScenario1.node[9].veinsmobility posy ETV
vector 45 HighwayScenario1.node[8].veinsmobility acceleration ETV
vector 46 HighwayScenario1.node[8].veinsmobility co2emission ETV
vector 47 HighwayScenario1.node[9].veinsmobility speed ETV
vector 48 HighwayScenario1.node[10].veinsmobility posx ETV
vector 49 HighwayScenario1.node[10].veinsmobility posy ETV
vector 50 HighwayScenario1.node[9].veinsmobility acceleration ETV
vector 51 HighwayScenario1.node[9].veinsmobility co2emission ETV
vector 52 HighwayScenario1.node[10].veinsmobility speed ETV
vector 53 HighwayScenario1.node[11].veinsmobility posx ETV
vector 54 HighwayScenario1.node[11].veinsmobility posy ETV
vector 55 HighwayScenario1.node[10].veinsmobility acceleration ETV
vector 56 HighwayScenario1.node[10].veinsmobility co2emission ETV
vector 57 HighwayScenario1.node[11].veinsmobility speed ETV
vector 58 HighwayScenario1.node[12].veinsmobility posx ETV
vector 59 HighwayScenario1.node[12].veinsmobility posy ETV
vector 60 HighwayScenario1.node[11].veinsmobility acceleration ETV
vector 61 HighwayScenario1.node[11].veinsmobility co2emission ETV
vector 62 HighwayScenario1.node[12].veinsmobility speed ETV
vector 63 HighwayScenario1.node[13].veinsmobility posx ETV
vector 64 HighwayScenario1.node[13].veinsmobility posy ETV
vector 65 HighwayScenario1.node[12].veinsmobility acceleration ETV
vector 66 HighwayScenario1.node[12].veinsmobility co2emission ETV
vector 67 HighwayScenario1.node[13].veinsmobility speed ETV
vector 68 HighwayScenario1.node[14].veinsmobility posx ETV
vector 69 HighwayScenario1.node[14].veinsmobility posy ETV
vector 70 HighwayScenario1.node[13].veinsmobility acceleration ETV
vector 71 HighwayScenario1.node[13].veinsmobility co2emission ETV
vector 72 HighwayScenario1.node[14].veinsmobility speed ETV
vector 73 HighwayScenario1.node[15].veinsmobility posx ETV
vector 74 HighwayScenario1.node[15].veinsmobility posy ETV
vector 75 HighwayScenario1.node[14].veinsmobility acceleration ETV
vector 76 HighwayScenario1.node[14].veinsmobility co2emission ETV
vector 77 HighwayScenario1.node[15].veinsmobility speed ETV
vector 78 HighwayScenario1.node[16].veinsmobility posx ETV
vector 79 HighwayScenario1.node[16].veinsmobility posy ETV
vector 80 HighwayScenario1.node[15].veinsmobility acceleration ETV
vector 81 HighwayScenario1.node[15].veinsmobility co2emission ETV
vector 82 HighwayScenario1.node[16].veinsmobility speed ETV
vector 83 HighwayScenario1.node[17].veinsmobility posx ETV
vector 84 HighwayScenario1.node[17].veinsmobility posy ETV
vector 85 HighwayScenario1.node[16].veinsmobility acceleration ETV
vector 86 HighwayScenario1.node[16].veinsmobility co2emission ETV
vector 87 HighwayScenario1.node[17].veinsmobility speed ETV
vector 88 HighwayScenario1.node[18].veinsmobility posx ETV
vector 89 HighwayScenario1.node[18].veinsmobility posy ETV
vector 90 HighwayScenario1.node[17].veinsmobility acceleration ETV
vector 91 HighwayScenario1.node[17].veinsmobility co2emission ETV
vector 92 HighwayScenario1.node[18].veinsmobility speed ETV
vector 93 HighwayScenario1.node[19].veinsmobility posx ETV
vector 94 HighwayScenario1.node[19].veinsmobility posy ETV
vector 95 HighwayScenario1.node[18].veinsmobility acceleration ETV
vector 96 HighwayScenario1.node[18].veinsmobility co2emission ETV
vector 97 HighwayScenario1.node[19].veinsmobility speed ETV
vector 98 HighwayScenario1.node[20].veinsmobility posx ETV
vector 99 HighwayScenario1.node[20].veinsmobility posy ETV
vector 100 HighwayScenario1.node[19].veinsmobility acceleration ETV
vector 101 HighwayScenario1.node[19].veinsmobility co2emission ETV
vector 102 HighwayScenario1.node[20].veinsmobility speed ETV
vector 103 HighwayScenario1.node[21].veinsmobility posx ETV
vector 104 HighwayScenario1.node[21].veinsmobility posy ETV
vector 105 HighwayScenario1.node[20].veinsmobility acceleration ETV
vector 106 HighwayScenario1.node[20].veinsmobility co2emission ETV
vector 107 HighwayScenario1.node[21].veinsmobility speed ETV
vector 108 HighwayScenario1.node[22].veinsmobility posx ETV
vector 109 HighwayScenario1.node[22].veinsmobility posy ETV
vector 110 HighwayScenario1.node[21].veinsmobility acceleration ETV
vector 111 HighwayScenario1.node[21].veinsmobility co2emission ETV
vector 112 HighwayScenario1.node[22].veinsmobility speed ETV
vector 113 HighwayScenario1.node[23].veinsmobility posx ETV
vector 114 HighwayScenario1.node[23].veinsmobility posy ETV
vector 115 HighwayScenario1.node[22].veinsmobility acceleration ETV
vector 116 HighwayScenario1.node[22].veinsmobility co2emission ETV
vector 117 HighwayScenario1.node[23].veinsmobility speed ETV
vector 118 HighwayScenario1.node[24].veinsmobility posx ETV
vector 119 HighwayScenario1.node[24].veinsmobility posy ETV
vector 120 HighwayScenario1.node[23].veinsmobility acceleration ETV
vector 121 HighwayScenario1.node[23].veinsmobility co2emission ETV
vector 122 HighwayScenario1.node[24].veinsmobility speed ETV
vector 123 HighwayScenario1.node[25].veinsmobility posx ETV
vector 124 HighwayScenario1.node[25].veinsmobility posy ETV
vector 125 HighwayScenario1.node[24].veinsmobility acceleration ETV
vector 126 HighwayScenario1.node[24].veinsmobility co2emission ETV
vector 127 HighwayScenario1.node[25].veinsmobility speed ETV
vector 128 HighwayScenario1.node[26].veinsmobility posx ETV
vector 129 HighwayScenario1.node[26].veinsmobility posy ETV
vector 130 HighwayScenario1.node[25].veinsmobility acceleration ETV
vector 131 HighwayScenario1.node[25].veinsmobility co2emission ETV
vector 132 HighwayScenario1.node[26].veinsmobility speed ETV
vector 133 HighwayScenario1.node[27].veinsmobility posx ETV
vector 134 HighwayScenario1.node[27].veinsmobility posy ETV
vector 135 HighwayScenario1.node[26].veinsmobility acceleration ETV
vector 136 HighwayScenario1.node[26].veinsmobility co2emission ETV
vector 137 HighwayScenario1.node[27].veinsmobility speed ETV
vector 138 HighwayScenario1.node[28].veinsmobility posx ETV
vector 139 HighwayScenario1.node[28].veinsmobility posy ETV
vector 140 HighwayScenario1.node[27].veinsmobility acceleration ETV
vector 141 HighwayScenario1.node[27].veinsmobility co2emission ETV
vector 142 HighwayScenario1.node[28].veinsmobility speed ETV
vector 143 HighwayScenario1.node[29].veinsmobility posx ETV
vector 144 HighwayScenario1.node[29].veinsmobility posy ETV
vector 145 HighwayScenario1.node[28].veinsmobility acceleration ETV
vector 146 HighwayScenario1.node[28].veinsmobility co2emission ETV
vector 147 HighwayScenario1.node[29].veinsmobility speed ETV
vector 148 HighwayScenario1.node[30].veinsmobility posx ETV
vector 149 HighwayScenario1.node[30].veinsmobility posy ETV
vector 150 HighwayScenario1.node[29].veinsmobility acceleration ETV
vector 151 HighwayScenario1.node[29].veinsmobility co2emission ETV
vector 152 HighwayScenario1.node[30].veinsmobility speed ETV
vector 153 HighwayScenario1.node[31].veinsmobility posx ETV
vector 154 HighwayScenario1.node[31].veinsmobility posy ETV
vector 155 HighwayScenario1.node[30].veinsmobility acceleration ETV
vector 156 HighwayScenario1.node[30].veinsmobility co2emission ETV
vector 157 HighwayScenario1.node[31].veinsmobility speed ETV
vector 158 HighwayScenario1.node[32].veinsmobility posx ETV
vector 159 HighwayScenario1.node[32].veinsmobility posy ETV
vector 160 HighwayScenario1.node[31].veinsmobility acceleration ETV
vector 161 HighwayScenario1.node[31].veinsmobility co2emission ETV
vector 162 HighwayScenario1.node[32].veinsmobility speed ETV
vector 163 HighwayScenario1.node[33].veinsmobility posx ETV
vector 164 HighwayScenario1.node[33].veinsmobility posy ETV
vector 165 HighwayScenario1.node[32].veinsmobility acceleration ETV
vector 166 HighwayScenario1.node[32].veinsmobility co2emission ETV
vector 167 HighwayScenario1.node[33].veinsmobility speed ETV
vector 168 HighwayScenario1.node[34].veinsmobility posx ETV
vector 169 HighwayScenario1.node[34].veinsmobility posy ETV
vector 170 HighwayScenario1.node[33].veinsmobility acceleration ETV
vector 171 HighwayScenario1.node[33].veinsmobility co2emission ETV
vector 172 HighwayScenario1.node[34].veinsmobility speed ETV
vector 173 HighwayScenario1.node[35].veinsmobility posx ETV
vector 174 HighwayScenario1.node[35].veinsmobility posy ETV
vector 175 HighwayScenario1.node[34].veinsmobility acceleration ETV
vector 176 HighwayScenario1.node[34].veinsmobility co2emission ETV
vector 177 HighwayScenario1.ambulanceNode[36].veinsmobility posx ETV
vector 178 HighwayScenario1.ambulanceNode[36].veinsmobility posy ETV
vector 179 HighwayScenario1.node[35].veinsmobility speed ETV
vector 180 HighwayScenario1.node[37].veinsmobility posx ETV
vector 181 HighwayScenario1.node[37].veinsmobility posy ETV
vector 182 HighwayScenario1.node[35].veinsmobility acceleration ETV
vector 183 HighwayScenario1.node[35].veinsmobility co2emission ETV
vector 184 HighwayScenario1.ambulanceNode[36].veinsmobility speed ETV
vector 185 HighwayScenario1.ambulanceNode[36].veinsmobility acceleration ETV
vector 186 HighwayScenario1.ambulanceNode[36].veinsmobility co2emission ETV
vector 187 HighwayScenario1.node[37].veinsmobility speed ETV
vector 188 HighwayScenario1.node[38].veinsmobility posx ETV
vector 189 HighwayScenario1.node[38].veinsmobility posy ETV
vector 190 HighwayScenario1.node[37].veinsmobility acceleration ETV
vector 191 HighwayScenario1.node[37].veinsmobility co2emission ETV
vector 192 HighwayScenario1.node[38].veinsmobility speed ETV
vector 193 HighwayScenario1.node[39].veinsmobility posx ETV
vector 194 HighwayScenario1.node[39].veinsmobility posy ETV
vector 195 HighwayScenario1.node[38].veinsmobility acceleration ETV
vector 196 HighwayScenario1.node[38].veinsmobility co2emission ETV
vector 197 HighwayScenario1.node[39].veinsmobility speed ETV
vector 198 HighwayScenario1.node[40].veinsmobility posx ETV
vector 199 HighwayScenario1.node[40].veinsmobility posy ETV
vector 200 HighwayScenario1.node[39].veinsmobility acceleration ETV
vector 201 HighwayScenario1.node[39].veinsmobility co2emission ETV
vector 202 HighwayScenario1.node[40].veinsmobility speed ETV
vector 203 HighwayScenario1.node[41].veinsmobility posx ETV
vector 204 HighwayScenario1.node[41].veinsmobility posy ETV
vector 205 HighwayScenario1.node[40].veinsmobility acceleration ETV
vector 206 HighwayScenario1.node[40].veinsmobility co2emission ETV
vector 207 HighwayScenario1.node[41].veinsmobility speed ETV
vector 208 HighwayScenario1.node[42].veinsmobility posx ETV
vector 209 HighwayScenario1.node[42].veinsmobility posy ETV
vector 210 HighwayScenario1.node[41].veinsmobility acceleration ETV
vector 211 HighwayScenario1.node[41].veinsmobility co2emission ETV
vector 212 HighwayScenario1.node[42].veinsmobility speed ETV
vector 213 HighwayScenario1.node[43].veinsmobility posx ETV
vector 214 HighwayScenario1.node[43].veinsmobility posy ETV
vector 215 HighwayScenario1.node[42].veinsmobility acceleration ETV
vector 216 HighwayScenario1.node[42].veinsmobility co2emission ETV
vector 217 HighwayScenario1.node[43].veinsmobility speed ETV
vector 218 HighwayScenario1.node[44].veinsmobility posx ETV
vector 219 HighwayScenario1.node[44].veinsmobility posy ETV
vector 220 HighwayScenario1.node[43].veinsmobility acceleration ETV
vector 221 HighwayScenario1.node[43].veinsmobility co2emission ETV
vector 222 HighwayScenario1.node[44].veinsmobility speed ETV
vector 223 HighwayScenario1.node[45].veinsmobility posx ETV
vector 224 HighwayScenario1.node[45].veinsmobility posy ETV
vector 225 HighwayScenario1.node[44].veinsmobility acceleration ETV
vector 226 HighwayScenario1.node[44].veinsmobility co2emission ETV
vector 227 HighwayScenario1.node[45].veinsmobility speed ETV
vector 228 HighwayScenario1.node[46].veinsmobility posx ETV
vector 229 HighwayScenario1.node[46].veinsmobility posy ETV
vector 230 HighwayScenario1.node[45].veinsmobility acceleration ETV
vector 231 HighwayScenario1.node[45].veinsmobility co2emission ETV
vector 232 HighwayScenario1.node[46].veinsmobility speed ETV
vector 233 HighwayScenario1.node[47].veinsmobility posx ETV
vector 234 HighwayScenario1.node[47].veinsmobility posy ETV
vector 235 HighwayScenario1.node[46].veinsmobility acceleration ETV
vector 236 HighwayScenario1.node[46].veinsmobility co2emission ETV
vector 237 HighwayScenario1.node[47].veinsmobility speed ETV
vector 238 HighwayScenario1.node[48].veinsmobility posx ETV
vector 239 HighwayScenario1.node[48].veinsmobility posy ETV
vector 240 HighwayScenario1.node[47].veinsmobility acceleration ETV
vector 241 HighwayScenario1.node[47].veinsmobility co2emission ETV
vector 242 HighwayScenario1.node[48].veinsmobility speed ETV
vector 243 HighwayScenario1.node[49].veinsmobility posx ETV
vector 244 HighwayScenario1.node[49].veinsmobility posy ETV
vector 245 HighwayScenario1.node[48].veinsmobility acceleration ETV
vector 246 HighwayScenario1.node[48].veinsmobility co2emission ETV
vector 247 HighwayScenario1.node[49].veinsmobility speed ETV
vector 248 HighwayScenario1.node[50].veinsmobility posx ETV
vector 249 HighwayScenario1.node[50].veinsmobility posy ETV
vector 250 HighwayScenario1.node[49].veinsmobility acceleration ETV
vector 251 HighwayScenario1.node[49].veinsmobility co2emission ETV
vector 252 HighwayScenario1.node[50].veinsmobility speed ETV
vector 253 HighwayScenario1.node[51].veinsmobility posx ETV
vector 254 HighwayScenario1.node[51].veinsmobility posy ETV
vector 255 HighwayScenario1.node[50].veinsmobility acceleration ETV
vector 256 HighwayScenario1.node[50].veinsmobility co2emission ETV
vector 257 HighwayScenario1.node[51].veinsmobility speed ETV
vector 258 HighwayScenario1.node[52].veinsmobility posx ETV
vector 259 HighwayScenario1.node[52].veinsmobility posy ETV
vector 260 HighwayScenario1.node[51].veinsmobility acceleration ETV
vector 261 HighwayScenario1.node[51].veinsmobility co2emission ETV
vector 262 HighwayScenario1.node[52].veinsmobility speed ETV
vector 263 HighwayScenario1.node[53].veinsmobility posx ETV
vector 264 HighwayScenario1.node[53].veinsmobility posy ETV
vector 265 HighwayScenario1.node[52].veinsmobility acceleration ETV
vector 266 HighwayScenario1.node[52].veinsmobility co2emission ETV
vector 267 HighwayScenario1.node[53].veinsmobility speed ETV
vector 268 HighwayScenario1.node[54].veinsmobility posx ETV
vector 269 HighwayScenario1.node[54].veinsmobility posy ETV
vector 270 HighwayScenario1.node[53].veinsmobility acceleration ETV
vector 271 HighwayScenario1.node[53].veinsmobility co2emission ETV
vector 272 HighwayScenario1.node[54].veinsmobility speed ETV
vector 273 HighwayScenario1.node[55].veinsmobility posx ETV
vector 274 HighwayScenario1.node[55].veinsmobility posy ETV
vector 275 HighwayScenario1.node[54].veinsmobility acceleration ETV
vector 276 HighwayScenario1.node[54].veinsmobility co2emission ETV
vector 277 HighwayScenario1.node[55].veinsmobility speed ETV
vector 278 HighwayScenario1.node[56].veinsmobility posx ETV
vector 279 HighwayScenario1.node[56].veinsmobility posy ETV
vector 280 HighwayScenario1.node[55].veinsmobility acceleration ETV
vector 281 HighwayScenario1.node[55].veinsmobility co2emission ETV
vector 282 HighwayScenario1.node[56].veinsmobility speed ETV
vector 283 HighwayScenario1.node[57].veinsmobility posx ETV
vector 284 HighwayScenario1.node[57].veinsmobility posy ETV
vector 285 HighwayScenario1.node[56].veinsmobility acceleration ETV
vector 286 HighwayScenario1.node[56].veinsmobility co2emission ETV
vector 287 HighwayScenario1.node[57].veinsmobility speed ETV
vector 288 HighwayScenario1.node[58].veinsmobility posx ETV
vector 289 HighwayScenario1.node[58].veinsmobility posy ETV
vector 290 HighwayScenario1.node[57].veinsmobility acceleration ETV
vector 291 HighwayScenario1.node[57].veinsmobility co2emission ETV
vector 292 HighwayScenario1.node[58].veinsmobility speed ETV
vector 293 HighwayScenario1.node[59].veinsmobility posx ETV
vector 294 HighwayScenario1.node[59].veinsmobility posy ETV
vector 295 HighwayScenario1.node[58].veinsmobility acceleration ETV
vector 296 HighwayScenario1.node[58].veinsmobility co2emission ETV
vector 297 HighwayScenario1.node[59].veinsmobility speed ETV
vector 298 HighwayScenario1.node[60].veinsmobility posx ETV
vector 299 HighwayScenario1.node[60].veinsmobility posy ETV
vector 300 HighwayScenario1.node[59].veinsmobility acceleration ETV
vector 301 HighwayScenario1.node[59].veinsmobility co2emission ETV
vector 302 HighwayScenario1.node[60].veinsmobility speed ETV
vector 303 HighwayScenario1.node[61].veinsmobility posx ETV
vector 304 HighwayScenario1.node[61].veinsmobility posy ETV
vector 305 HighwayScenario1.node[60].veinsmobility acceleration ETV
vector 306 HighwayScenario1.node[60].veinsmobility co2emission ETV
vector 307 HighwayScenario1.node[61].veinsmobility speed ETV
vector 308 HighwayScenario1.node[62].veinsmobility posx ETV
vector 309 HighwayScenario1.node[62].veinsmobility posy ETV
vector 310 HighwayScenario1.node[61].veinsmobility acceleration ETV
vector 311 HighwayScenario1.node[61].veinsmobility co2emission ETV
vector 312 HighwayScenario1.node[62].veinsmobility speed ETV
vector 313 HighwayScenario1.node[63].veinsmobility posx ETV
vector 314 HighwayScenario1.node[63].veinsmobility posy ETV
vector 315 HighwayScenario1.node[62].veinsmobility acceleration ETV
vector 316 HighwayScenario1.node[62].veinsmobility co2emission ETV
vector 317 HighwayScenario1.node[63].veinsmobility speed ETV
vector 318 HighwayScenario1.node[64].veinsmobility posx ETV
vector 319 HighwayScenario1.node[64].veinsmobility posy ETV
vector 320 HighwayScenario1.node[63].veinsmobility acceleration ETV
vector 321 HighwayScenario1.node[63].veinsmobility co2emission ETV
vector 322 HighwayScenario1.node[64].veinsmobility speed ETV
vector 323 HighwayScenario1.node[65].veinsmobility posx ETV
vector 324 HighwayScenario1.node[65].veinsmobility posy ETV
vector 325 HighwayScenario1.node[64].veinsmobility acceleration ETV
vector 326 HighwayScenario1.node[64].veinsmobility co2emission ETV
vector 327 HighwayScenario1.node[65].veinsmobility speed ETV
vector 328 HighwayScenario1.node[66].veinsmobility posx ETV
vector 329 HighwayScenario1.node[66].veinsmobility posy ETV
vector 330 HighwayScenario1.node[65].veinsmobility acceleration ETV
vector 331 HighwayScenario1.node[65].veinsmobility co2emission ETV
vector 332 HighwayScenario1.node[66].veinsmobility speed ETV
vector 333 HighwayScenario1.node[67].veinsmobility posx ETV
vector 334 HighwayScenario1.node[67].veinsmobility posy ETV
vector 335 HighwayScenario1.node[66].veinsmobility acceleration ETV
vector 336 HighwayScenario1.node[66].veinsmobility co2emission ETV
vector 337 HighwayScenario1.node[67].veinsmobility speed ETV
vector 338 HighwayScenario1.node[68].veinsmobility posx ETV
vector 339 HighwayScenario1.node[68].veinsmobility posy ETV
vector 340 HighwayScenario1.node[67].veinsmobility acceleration ETV
vector 341 HighwayScenario1.node[67].veinsmobility co2emission ETV
vector 342 HighwayScenario1.node[68].veinsmobility speed ETV
vector 343 HighwayScenario1.node[69].veinsmobility posx ETV
vector 344 HighwayScenario1.node[69].veinsmobility posy ETV
vector 345 HighwayScenario1.node[68].veinsmobility acceleration ETV
vector 346 HighwayScenario1.node[68].veinsmobility co2emission ETV
vector 347 HighwayScenario1.node[69].veinsmobility speed ETV
vector 348 HighwayScenario1.node[70].veinsmobility posx ETV
vector 349 HighwayScenario1.node[70].veinsmobility posy ETV
vector 350 HighwayScenario1.node[69].veinsmobility acceleration ETV
vector 351 HighwayScenario1.node[69].veinsmobility co2emission ETV
vector 352 HighwayScenario1.node[70].veinsmobility speed ETV
vector 353 HighwayScenario1.node[71].veinsmobility posx ETV
vector 354 HighwayScenario1.node[71].veinsmobility posy ETV
vector 355 HighwayScenario1.node[70].veinsmobility acceleration ETV
vector 356 HighwayScenario1.node[70].veinsmobility co2emission ETV
vector 357 HighwayScenario1.node[71].veinsmobility speed ETV
vector 358 HighwayScenario1.node[72].veinsmobility posx ETV
vector 359 HighwayScenario1.node[72].veinsmobility posy ETV
vector 360 HighwayScenario1.node[71].veinsmobility acceleration ETV
vector 361 HighwayScenario1.node[71].veinsmobility co2emission ETV
vector 362 HighwayScenario1.node[72].veinsmobility speed ETV
vector 363 HighwayScenario1.node[73].veinsmobility posx ETV
vector 364 HighwayScenario1.node[73].veinsmobility posy ETV
vector 365 HighwayScenario1.node[72].veinsmobility acceleration ETV
vector 366 HighwayScenario1.node[72].veinsmobility co2emission ETV
vector 367 HighwayScenario1.node[73].veinsmobility speed ETV
vector 368 HighwayScenario1.node[74].veinsmobility posx ETV
vector 369 HighwayScenario1.node[74].veinsmobility posy ETV
vector 370 HighwayScenario1.node[73].veinsmobility acceleration ETV
vector 371 HighwayScenario1.node[73].veinsmobility co2emission ETV
vector 372 HighwayScenario1.node[74].veinsmobility speed ETV
vector 373 HighwayScenario1.node[75].veinsmobility posx ETV
vector 374 HighwayScenario1.node[75].veinsmobility posy ETV
vector 375 HighwayScenario1.node[74].veinsmobility acceleration ETV
vector 376 HighwayScenario1.node[74].veinsmobility co2emission ETV
vector 377 HighwayScenario1.node[75].veinsmobility speed ETV
6	184	3	5.7048709738187
6	485	4	3.5335996295472
6	786	5	5.8940658553922
6	1417	6	6.1412777054657
6	2048	7	8.1429881602435
6	3129	8	3.5723644095399
6	4210	9	11.389240806978
6	5861	10	4.7108077244723
6	7512	11	2.06410945459
6	9853	12	15.700067516907
6	12194	13	0.973
6	15265	14	9.7014019149392
6	18416	15	10.203889411714
6	22337	16	2.8674074686645
6	26258	17	9.8128105459153
6	30989	18	-2.0248547134695
6	35720	19	15.013274486058
6	41381	20	-0.42950011344453
6	46962	21	3.6203017673145
6	53513	22	12.033686704547
6	60064	23	7.2577200400589
6	67625	24	2.5404279742669
6	75186	25	5.4267642741175
6	83797	26	4.6166451919375
6	92408	27	14.42442360838
6	102109	28	4.2974587242077
6	111810	29	6.489993271128
6	122561	30	-0.16013175353015
6	133312	31	6.1239051111227
6	145154	32	10.846717815564
6	156995	33	9.301620065806
6	170046	34	-1.5471911125132
6	183098	35	10.5161277624
6	197400	36	9.7169731077307
6	211702	37	7.7280950710648
6	227204	38	4.1518799062378
6	242711	39	5.8531802604775
6	259544	40	4.3431324794361
6	276381	41	2.026801663438
6	294589	42	7.0349230232207
6	312687	43	4.061563551146
6	332198	44	12.107292012181
6	351514	45	8.2798623764298
6	372193	46	6.0567032212162
6	392807	47	2.420262958606
6	414839	48	10.264880798346
6	436936	49	6.3751340285586
6	460471	50	-1.306473270672
6	484005	51	6.6821896675697
6	509093	52	14.303579137871
6	534115	53	2.1134385401865
6	560808	54	7.9433535478639
6	587567	55	3.5943159004431
6	615875	56	10.659362294242
6	644198	57	7.8596524968532
6	674196	58	5.8550337751951
6	704207	59	3.20804223794
6	735795	60	6.3005263984639
6	767523	61	2.8343131284237
6	801021	62	11.302000875592
6	834522	63	-0.8793819898678
6	869767	64	7.523659352364
6	905089	65	4.7420994495213
6	942099	66	14.351539034138
6	979112	67	2.7526532639704
6	1017886	68	0.76845745677985
6	1056687	69	15.923394449822
6	1097429	70	0.973
6	1138116	71	8.1331810019343
6	1180773	72	5.8399535630894
6	1224490	73	8.8784920092914
6	1270046	74	4.1882357517505
6	1315596	75	7.6650347640085
6	1363189	76	2.3067617830733
6	1410587	77	11.644726099848
6	1460056	78	5.717427921357
6	1509459	79	4.9270408153809
6	1560886	80	5.5673611295408
6	1612244	81	7.6175490381242
6	1665531	82	2.0758898999774
6	1718673	83	7.8124623159034
6	1773787	84	11.216798823841
6	1828716	85	-0.56453575574142
6	1886015	86	7.1671219969202
6	1943224	87	12.656689745392
6	2003040	88	2.6501530438411
6	2062520	89	4.0135057696601
6	2124396	90	10.942886015852
6	2186273	91	6.2158908954125
6	2250813	92	0.35704688563911
6	2315467	93	8.7838866924413
6	2382578	94	9.3159243836174
6	2449661	95	-1.1738468996757
6	2519146	96	12.578478366089
6	2588725	97	2.7594148571391
6	2660704	98	5.4904220323876
6	2732300	99	11.509043117406
6	2806084	100	-0.98786342786125
6	2879342	101	7.6029581461106
6	2954898	102	9.8385574331313
6	3030319	103	10.403445324632
6	3108242	104	0.55489117322889
6	3186183	105	12.258612473254
6	3266425	106	2.5302987127383
6	3346320	107	5.5856348529413
6	3428611	108	6.1983861979518
6	3510752	109	3.9436573262468
6	3595229	110	11.996197135701
6	3679383	111	2.522267617617
6	3765876	112	8.4714933359038
6	3851942	113	7.2876633133145
6	3940705	114	2.0155738047643
6	4029176	115	2.4801113853694
6	4119411	116	10.499110605799
6	4209375	117	7.8428800531903
6	4301129	118	5.4425350939089
6	4392450	119	1.9756271932399
6	4486099	120	12.695330017555
6	4579523	121	6.6471961738682
6	4675137	122	-0.76426021167984
6	4770586	123	7.310483208507
6	4868496	124	5.9684449824172
6	4966252	125	8.2257326983259
6	5065484	126	10.472290545753
6	5164601	127	-0.18253175215446
6	5266255	128	12.629815505434
6	5367921	129	-1.8298417311239
6	5472153	130	5.5688111669206
6	5576291	131	13.519667555672
6	5683094	132	-0.84834335255985
6	5789908	133	12.136523899373
6	5899464	134	6.4399418741618
6	6008581	135	2.5092872102123
6	6120226	136	8.4339412201588
6	6231431	137	1.8277628285276
6	6344761	138	6.1888273401106
6	6457623	139	9.7474395735493
6	6572857	140	5.8839971799297
6	6687696	141	5.5096465720287
6	6805479	142	7.3083622621496
6	6923435	143	6.3584317708941
6	7044004	144	8.5016211840315
6	7164958	145	1.596529617612
6	7289288	146	12.513286672365
6	7413315	147	-0.8546330549911
6	7540162	148	13.832702361821
6	7666924	149	-0.26138705213464
6	7796816	150	13.449561074922
5	184	3	-0.055038892605808
5	485	4	-0.31427640962647
5	786	5	-0.01709984469926
5	1417	6	0.013367353240028
5	2048	7	0.25169702770654
5	3129	8	-0.30734860833036
5	4210	9	0.63541435054503
5	5861	10	-0.18181675026426
5	7512	11	-0.49587713961955
5	9853	12	1.1317227926338
5	12194	13	-1.0622421826702
5	15265	14	0.43691833096091
5	18416	15	0.4714052437339
5	22337	16	-0.41280892153736
5	26258	17	0.42297781183152
5	30989	18	-1.0106623775209
5	35720	19	1.0555846546777
5	41381	20	-0.81425723416032
5	46962	21	-0.29710961622186
5	53513	22	0.71750655479264
5	60064	23	0.12145855405834
5	67625	24	-0.4455723578576
5	75186	25	-0.082004937867168
5	83797	26	-0.1765153897577
5	92408	27	0.98316923395032
5	102109	28	-0.24433198123006
5	111810	29	0.024247652909253
5	122561	30	-0.77693307772279
5	133312	31	0.013064037484583
5	145154	32	0.57156019611284
5	156995	33	0.36047621921171
5	170046	34	-0.95134066214086
5	183098	35	0.53412178327562
5	197400	36	0.41159573564073
5	211702	37	0.16032312705647
5	227204	38	-0.26526325149462
5	242711	39	-0.054172314121388
5	259544	40	-0.23105813015718
5	276381	41	-0.50313068117248
5	294589	42	0.12029366393108
5	312687	43	-0.24301625788212
5	332198	44	0.72327709960518
5	351514	45	0.23861267371103
5	372193	46	-0.032346485531889
5	392807	47	-0.46411262825131
5	414839	48	0.48263113887515
5	436936	49	0.0056178821250796
5	460471	50	-0.92045627359767
5	484005	51	0.082077201514039
5	509093	52	0.96771773853106
5	534115	53	-0.50555204506963
5	560808	54	0.20641731272917
5	587567	55	-0.31814042653423
5	615875	56	0.52820604585577
5	644198	57	0.1766297078575
5	674196	58	-0.064681964286137
5	704207	59	-0.37503540806938
5	735795	60	0.0061764381825924
5	767523	61	-0.4082587666926
5	801021	62	0.61031319113681
5	834522	63	-0.86733521515271
5	869767	64	0.18098858214216
5	905089	65	-0.1607996810344
5	942099	66	0.97477296367288
5	979112	67	-0.4282740468625
5	1017886	68	-0.65781348035671
5	1056687	69	1.1608386147418
5	1097429	70	-1.1076082821819
5	1138116	71	0.25536935863784
5	1180773	72	-0.029989263275638
5	1224490	73	0.33205524814548
5	1270046	74	-0.24005053419387
5	1315596	75	0.18451305746567
5	1363189	76	-0.46636652725283
5	1410587	77	0.66545655281516
5	1460056	78	-0.06296013656538
5	1509459	79	-0.15448570396984
5	1560886	80	-0.071955697785597
5	1612244	81	0.17443552438635
5	1665531	82	-0.49696922564181
5	1718673	83	0.21291787241353
5	1773787	84	0.6000670872163
5	1828716	85	-0.8283955976367
5	1886015	86	0.13678049523151
5	1943224	87	0.7712252359488
5	2003040	88	-0.43900934571866
5	2062520	89	-0.26056634378619
5	2124396	90	0.56958553759614
5	2186273	91	-0.0104048292269
5	2250813	92	-0.71377217274858
5	2315467	93	0.3259627908119
5	2382578	94	0.37130226439331
5	2449661	95	-0.90247942280257
5	2519146	96	0.78050926007563
5	2588725	97	-0.41731060860911
5	2660704	98	-0.07317160256207
5	2732300	99	0.63912240148056
5	2806084	100	-0.8798418729566
5	2879342	101	0.19359467201866
5	2954898	102	0.44776737486245
5	3030319	103	0.48847794620087
5	3108242	104	-0.69545321777696
5	3186183	105	0.71342614217428
5	3266425	106	-0.45755213592201
5	3346320	107	-0.077000872988719
5	3428611	108	-0.001109627482947
5	3510752	109	-0.27041873458074
5	3595229	110	0.68907772540115
5	3679383	111	-0.45500447304221
5	3765876	112	0.26801984990016
5	3851942	113	0.11684627272189
5	3940705	114	-0.51404505880782
5	4029176	115	-0.44272186176386
5	4119411	116	0.5356085835956
5	4209375	117	0.19619877595687
5	4301129	118	-0.095822964212857
5	4392450	119	-0.50992262491491
5	4486099	120	0.78257138549816
5	4579523	121	0.038815597945359
5	4675137	122	-0.85342360689538
5	4770586	123	0.15408247272717
5	4868496	124	-0.013254662626423
5	4966252	125	0.25593884085538
5	5065484	126	0.5046597745968
5	5164601	127	-0.78272445651237
5	5266255	128	0.76955208467552
5	5367921	129	-0.98600026161876
5	5472153	130	-0.051030686881859
5	5576291	131	0.88898243353469
5	5683094	132	-0.86183155275648
5	5789908	133	0.72779447888024
5	5899464	134	0.023550805926789
5	6008581	135	-0.44751149427611
5	6120226	136	0.27842761744978
5	6231431	137	-0.52576832677005
5	6344761	138	0.022517385950778
5	6457623	139	0.44464905309724
5	6572857	140	-0.033699780760799
5	6687696	141	-0.07700528105488
5	6805479	142	0.14029478945304
5	6923435	143	0.021457163384184
5	7044004	144	0.2727812572266
5	7164958	145	-0.56114286620868
5	7289288	146	0.75328989129048
5	7413315	147	-0.86571761901723
5	7540162	148	0.91137935814913
5	7666924	149	-0.79364027944393
5	7796816	150	0.85992017848184
2	93	2	33.410454825024
2	184	3	33.355415932418
2	485	4	33.041139522792
2	786	5	33.024039678092
2	1417	6	33.037407031332
2	2048	7	33.289104059039
2	3129	8	32.981755450709
2	4210	9	33.617169801254
2	5861	10	33.435353050989
2	7512	11	32.93947591137
2	9853	12	34.071198704004
2	12194	13	33.008956521333
2	15265	14	33.445874852294
2	18416	15	33.917280096028
2	22337	16	33.504471174491
2	26258	17	33.927448986322
2	30989	18	32.916786608801
2	35720	19	33.972371263479
2	41381	20	33.158114029319
2	46962	21	32.861004413097
2	53513	22	33.57851096789
2	60064	23	33.699969521948
2	67625	24	33.25439716409
2	75186	25	33.172392226223
2	83797	26	32.995876836465
2	92408	27	33.979046070416
2	102109	28	33.734714089186
2	111810	29	33.758961742095
2	122561	30	32.982028664372
2	133312	31	32.995092701857
2	145154	32	33.56665289797
2	156995	33	33.927129117181
2	170046	34	32.97578845504
2	183098	35	33.509910238316
2	197400	36	33.921505973957
2	211702	37	34.081829101013
2	227204	38	33.816565849519
2	242711	39	33.762393535397
2	259544	40	33.53133540524
2	276381	41	33.028204724068
2	294589	42	33.148498387999
2	312687	43	32.905482130117
2	332198	44	33.628759229722
2	351514	45	33.867371903433
2	372193	46	33.835025417901
2	392807	47	33.37091278965
2	414839	48	33.853543928525
2	436936	49	33.85916181065
2	460471	50	32.938705537052
2	484005	51	33.020782738566
2	509093	52	33.988500477097
2	534115	53	33.482948432028
2	560808	54	33.689365744757
2	587567	55	33.371225318223
2	615875	56	33.899431364078
2	644198	57	34.076061071936
2	674196	58	34.01137910765
2	704207	59	33.63634369958
2	735795	60	33.642520137763
2	767523	61	33.23426137107
2	801021	62	33.844574562207
2	834522	63	32.977239347054
2	869767	64	33.158227929197
2	905089	65	32.997428248162
2	942099	66	33.972201211835
2	979112	67	33.543927164973
2	1017886	68	32.886113684616
2	1056687	69	34.046952299358
2	1097429	70	32.939344017176
2	1138116	71	33.194713375814
2	1180773	72	33.164724112538
2	1224490	73	33.496779360683
2	1270046	74	33.25672882649
2	1315596	75	33.441241883955
2	1363189	76	32.974875356702
2	1410587	77	33.640331909518
2	1460056	78	33.577371772952
2	1509459	79	33.422886068982
2	1560886	80	33.350930371197
2	1612244	81	33.525365895583
2	1665531	82	33.028396669941
2	1718673	83	33.241314542355
2	1773787	84	33.841381629571
2	1828716	85	33.012986031934
2	1886015	86	33.149766527166
2	1943224	87	33.920991763115
2	2003040	88	33.481982417396
2	2062520	89	33.22141607361
2	2124396	90	33.791001611206
2	2186273	91	33.780596781979
2	2250813	92	33.06682460923
2	2315467	93	33.392787400042
2	2382578	94	33.764089664436
2	2449661	95	32.861610241633
2	2519146	96	33.642119501709
2	2588725	97	33.2248088931
2	2660704	98	33.151637290538
2	2732300	99	33.790759692018
2	2806084	100	32.910917819062
2	2879342	101	33.10451249108
2	2954898	102	33.552279865943
2	3030319	103	34.040757812144
2	3108242	104	33.345304594367
2	3186183	105	34.058730736541
2	3266425	106	33.601178600619
2	3346320	107	33.52417772763
2	3428611	108	33.523068100147
2	3510752	109	33.252649365566
2	3595229	110	33.941727090968
2	3679383	111	33.486722617925
2	3765876	112	33.754742467826
2	3851942	113	33.871588740547
2	3940705	114	33.35754368174
2	4029176	115	32.914821819976
2	4119411	116	33.450430403571
2	4209375	117	33.646629179528
2	4301129	118	33.550806215315
2	4392450	119	33.0408835904
2	4486099	120	33.823454975899
2	4579523	121	33.862270573844
2	4675137	122	33.008846966949
2	4770586	123	33.162929439676
2	4868496	124	33.149674777049
2	4966252	125	33.405613617905
2	5065484	126	33.910273392502
2	5164601	127	33.127548935989
2	5266255	128	33.897101020665
2	5367921	129	32.911100759046
2	5472153	130	32.860070072164
2	5576291	131	33.749052505699
2	5683094	132	32.887220952942
2	5789908	133	33.615015431822
2	5899464	134	33.638566237749
2	6008581	135	33.191054743473
2	6120226	136	33.469482360923
2	6231431	137	32.943714034153
2	6344761	138	32.966231420104
2	6457623	139	33.410880473201
2	6572857	140	33.37718069244
2	6687696	141	33.300175411385
2	6805479	142	33.440470200838
2	6923435	143	33.461927364222
2	7044004	144	33.734708621449
2	7164958	145	33.17356575524
2	7289288	146	33.926855646531
2	7413315	147	33.061138027514
2	7540162	148	33.972517385663
2	7666924	149	33.178877106219
2	7796816	150	34.038797284701
1	2	1	29.95
1	93	2	29.95
1	184	3	29.95
1	485	4	29.95
1	786	5	29.95
1	1417	6	29.95
1	2048	7	29.95
1	3129	8	29.95
1	4210	9	29.95
1	5861	10	29.95
1	7512	11	29.95
1	9853	12	29.95
1	12194	13	29.95
1	15265	14	29.95
1	18416	15	29.95
1	22337	16	29.95
1	26258	17	29.95
1	30989	18	29.95
1	35720	19	29.95
1	41381	20	29.95
1	46962	21	29.95
1	53513	22	29.95
1	60064	23	29.95
1	67625	24	29.95
1	75186	25	29.95
1	83797	26	29.95
1	92408	27	29.95
1	102109	28	29.95
1	111810	29	29.95
1	122561	30	29.95
1	133312	31	29.95
1	145154	32	29.95
1	156995	33	29.95
1	170046	34	29.95
1	183098	35	29.95
1	197400	36	29.95
1	211702	37	29.95
1	227204	38	29.95
1	242711	39	29.95
1	259544	40	29.95
1	276381	41	29.95
1	294589	42	29.95
1	312687	43	29.95
1	332198	44	29.95
1	351514	45	29.95
1	372193	46	29.95
1	392807	47	29.95
1	414839	48	29.95
1	436936	49	29.95
1	460471	50	29.95
1	484005	51	29.95
1	509093	52	29.95
1	534115	53	29.95
1	560808	54	29.95
1	587567	55	29.95
1	615875	56	29.95
1	644198	57	29.95
1	674196	58	29.95
1	704207	59	29.95
1	735795	60	29.95
1	767523	61	29.95
1	801021	62	29.95
1	834522	63	29.95
1	869767	64	29.95
1	905089	65	29.95
1	942099	66	29.95
1	979112	67	29.95
1	1017886	68	29.95
1	1056687	69	29.95
1	1097429	70	29.95
1	1138116	71	29.95
1	1180773	72	29.95
1	1224490	73	29.95
1	1270046	74	29.95
1	1315596	75	29.95
1	1363189	76	29.95
1	1410587	77	29.95
1	1460056	78	29.95
1	1509459	79	29.95
1	1560886	80	29.95
1	1612244	81	29.95
1	1665531	82	29.95
1	1718673	83	29.95
1	1773787	84	29.95
1	1828716	85	29.95
1	1886015	86	29.95
1	1943224	87	29.95
1	2003040	88	29.95
1	2062520	89	29.95
1	2124396	90	29.95
1	2186273	91	29.95
1	2250813	92	29.95
1	2315467	93	29.95
1	2382578	94	29.95
1	2449661	95	29.95
1	2519146	96	29.95
1	2588725	97	29.95
1	2660704	98	29.95
1	2732300	99	29.95
1	2806084	100	29.95
1	2879342	101	29.95
1	2954898	102	29.95
1	3030319	103	29.95
1	3108242	104	29.95
1	3186183	105	29.95
1	3266425	106	29.95
1	3346320	107	29.95
1	3428611	108	29.95
1	3510752	109	29.95
1	3595229	110	29.95
1	3679383	111	29.95
1	3765876	112	29.95
1	3851942	113	29.95
1	3940705	114	29.95
1	4029176	115	29.95
1	4119411	116	29.95
1	4209375	117	29.95
1	4301129	118	29.95
1	4392450	119	29.95
1	4486099	120	29.95
1	4579523	121	29.95
1	4675137	122	29.95
1	4770586	123	29.95
1	4868496	124	29.95
1	4966252	125	29.95
1	5065484	126	29.95
1	5164601	127	29.95
1	5266255	128	29.95
1	5367921	129	29.95
1	5472153	130	29.95
1	5576291	131	29.95
1	5683094	132	29.95
1	5789908	133	29.95
1	5899464	134	29.95
1	6008581	135	29.95
1	6120226	136	29.95
1	6231431	137	29.95
1	6344761	138	29.95
1	6457623	139	29.95
1	6572857	140	29.95
1	6687696	141	29.95
1	6805479	142	29.95
1	6923435	143	29.95
1	7044004	144	29.95
1	7164958	145	29.95
1	7289288	146	29.95
1	7413315	147	29.95
1	7540162	148	29.95
1	7666924	149	29.95
1	7796816	150	29.95
0	2	1	30.1
0	93	2	30.1
0	184	3	63.510454825024
0	485	4	96.865870757442
0	786	5	129.90701028023
0	1417	6	162.93104995833
0	2048	7	195.96845698966
0	3129	8	229.2575610487
0	4210	9	262.23931649941
0	5861	10	295.85648630066
0	7512	11	329.29183935165
0	9853	12	362.23131526302
0	12194	13	396.30251396702
0	15265	14	429.31147048836
0	18416	15	462.75734534065
0	22337	16	496.67462543668
0	26258	17	530.17909661117
0	30989	18	564.10654559749
0	35720	19	597.02333220629
0	41381	20	630.99570346977
0	46962	21	664.15381749909
0	53513	22	697.01482191219
0	60064	23	730.59333288008
0	67625	24	764.29330240202
0	75186	25	797.54769956611
0	83797	26	830.72009179234
0	92408	27	863.7159686288
0	102109	28	897.69501469922
0	111810	29	931.4297287884
0	122561	30	965.1886905305
0	133312	31	998.17071919487
0	145154	32	1031.1658118967
0	156995	33	1064.7324647947
0	170046	34	1098.6595939119
0	183098	35	1131.6353823669
0	197400	36	1165.1452926052
0	211702	37	1199.0667985792
0	227204	38	1233.1486276802
0	242711	39	1266.9651935297
0	259544	40	1300.7275870651
0	276381	41	1334.2589224704
0	294589	42	1367.2871271944
0	312687	43	1400.4356255824
0	332198	44	1433.3411077125
0	351514	45	1466.9698669423
0	372193	46	1500.8372388457
0	392807	47	1534.6722642636
0	414839	48	1568.0431770532
0	436936	49	1601.8967209818
0	460471	50	1635.7558827924
0	484005	51	1668.6945883295
0	509093	52	1701.715371068
0	534115	53	1735.7038715451
0	560808	54	1769.1868199772
0	587567	55	1802.8761857219
0	615875	56	1836.2474110401
0	644198	57	1870.1468424042
0	674196	58	1904.2229034762
0	704207	59	1938.2342825838
0	735795	60	1971.8706262834
0	767523	61	2005.5131464212
0	801021	62	2038.7474077922
0	834522	63	2072.5919823544
0	869767	64	2105.5692217015
0	905089	65	2138.7274496307
0	942099	66	2171.7248778788
0	979112	67	2205.6970790907
0	1017886	68	2239.2410062557
0	1056687	69	2272.1271199403
0	1097429	70	2306.1740722396
0	1138116	71	2339.1134162568
0	1180773	72	2372.3081296326
0	1224490	73	2405.4728537452
0	1270046	74	2438.9696331058
0	1315596	75	2472.2263619323
0	1363189	76	2505.6676038163
0	1410587	77	2538.642479173
0	1460056	78	2572.2828110825
0	1509459	79	2605.8601828555
0	1560886	80	2639.2830689244
0	1612244	81	2672.6339992956
0	1665531	82	2706.1593651912
0	1718673	83	2739.1877618612
0	1773787	84	2772.4290764035
0	1828716	85	2806.2704580331
0	1886015	86	2839.283444065
0	1943224	87	2872.4332105922
0	2003040	88	2906.3542023553
0	2062520	89	2939.8361847727
0	2124396	90	2973.0576008463
0	2186273	91	3006.8486024575
0	2250813	92	3040.6291992395
0	2315467	93	3073.6960238487
0	2382578	94	3107.0888112488
0	2449661	95	3140.8529009132
0	2519146	96	3173.7145111548
0	2588725	97	3207.3566306565
0	2660704	98	3240.5814395496
0	2732300	99	3273.7330768402
0	2806084	100	3307.5238365322
0	2879342	101	3340.4347543513
0	2954898	102	3373.5392668423
0	3030319	103	3407.0915467083
0	3108242	104	3441.1323045204
0	3186183	105	3474.4776091148
0	3266425	106	3508.5363398513
0	3346320	107	3542.1375184519
0	3428611	108	3575.6616961796
0	3510752	109	3609.1847642797
0	3595229	110	3642.4374136453
0	3679383	111	3676.3791407363
0	3765876	112	3709.8658633542
0	3851942	113	3743.620605822
0	3940705	114	3777.4921945626
0	4029176	115	3810.8497382443
0	4119411	116	3843.7645600643
0	4209375	117	3877.2149904678
0	4301129	118	3910.8616196474
0	4392450	119	3944.4124258627
0	4486099	120	3977.4533094531
0	4579523	121	4011.276764429
0	4675137	122	4045.1390350028
0	4770586	123	4078.1478819698
0	4868496	124	4111.3108114095
0	4966252	125	4144.4604861865
0	5065484	126	4177.8660998044
0	5164601	127	4211.7763731969
0	5266255	128	4244.9039221329
0	5367921	129	4278.8010231536
0	5472153	130	4311.7121239126
0	5576291	131	4344.5721939848
0	5683094	132	4378.3212464905
0	5789908	133	4411.2084674434
0	5899464	134	4444.8234828752
0	6008581	135	4478.462049113
0	6120226	136	4511.6531038565
0	6231431	137	4545.1225862174
0	6344761	138	4578.0663002515
0	6457623	139	4611.0325316716
0	6572857	140	4644.4434121448
0	6687696	141	4677.8205928373
0	6805479	142	4711.1207682487
0	6923435	143	4744.5612384495
0	7044004	144	4778.0231658137
0	7164958	145	4811.7578744352
0	7289288	146	4844.9314401904
0	7413315	147	4878.858295837
0	7540162	148	4911.9194338645
0	7666924	149	4945.8919512501
0	7796816	150	4979.0708283564
vector 378 HighwayScenario1.node[76].veinsmobility posx ETV
vector 379 HighwayScenario1.node[76].veinsmobility posy ETV
vector 380 HighwayScenario1.node[75].veinsmobility acceleration ETV
vector 381 HighwayScenario1.node[75].veinsmobility co2emission ETV
vector 382 HighwayScenario1.node[76].veinsmobility speed ETV
11	786	5	7.2495004523269
11	1417	6	6.7295802296022
11	2048	7	5.3246482938961
11	3129	8	8.0723112643782
11	4210	9	0.7602941699132
11	5861	10	7.7505909047172
11	7512	11	10.247828825346
11	9853	12	9.4792204063197
11	12194	13	-0.83858796562536
11	15265	14	5.8265012007196
11	18416	15	6.8539517297321
11	22337	16	10.905247495119
11	26258	17	8.9048419736908
11	30989	18	0.973
11	35720	19	14.986031489361
11	41381	20	3.6644468912805
11	46962	21	-0.40047450586038
11	53513	22	11.148095544233
11	60064	23	9.679206558787
11	67625	24	6.7809416083407
11	75186	25	7.1658052102747
11	83797	26	2.2250122145419
11	92408	27	0.96036536737326
11	102109	28	12.93956751943
11	111810	29	1.6922422429726
11	122561	30	3.5044900635588
11	133312	31	13.422736637157
11	145154	32	2.4171953800085
11	156995	33	11.618363721472
11	170046	34	5.938515968695
11	183098	35	0.973
11	197400	36	12.185831407179
11	211702	37	2.4854436221407
11	227204	38	4.9141937175838
11	242711	39	8.7292485317512
11	259544	40	7.4158907561458
11	276381	41	10.69306463086
11	294589	42	-2.0804058908915
11	312687	43	10.477190628975
11	332198	44	4.1995284561741
11	351514	45	10.793264020341
11	372193	46	5.3761472219248
11	392807	47	-0.81751913886264
11	414839	48	9.7193600709753
11	436936	49	8.4020944937286
11	460471	50	9.0755421412605
11	484005	51	3.7293728759945
11	509093	52	9.6657689032865
11	534115	53	6.1541068191527
11	560808	54	3.0254199715214
11	587567	55	6.9034748953451
11	615875	56	0.22763285625312
11	644198	57	9.9439784627674
11	674196	58	6.0200396468419
11	704207	59	11.267911073004
11	735795	60	0.973
11	767523	61	11.67559635865
11	801021	62	3.6169313170072
11	834522	63	12.1047702425
11	869767	64	0.56981827873919
11	905089	65	9.8533193060556
11	942099	66	3.0778372714286
11	979112	67	1.8612132505753
11	1017886	68	16.082526195399
11	1056687	69	2.2502705579527
11	1097429	70	4.3848754992495
11	1138116	71	2.7039543293299
11	1180773	72	5.9425768442218
11	1224490	73	11.064071938352
11	1270046	74	3.379942900767
11	1315596	75	5.3402163571807
11	1363189	76	12.880408024287
11	1410587	77	2.1495819166133
11	1460056	78	2.2172925345689
11	1509459	79	13.562780633332
11	1560886	80	-1.14178001706
11	1612244	81	12.82449740518
11	1665531	82	2.6129983664916
11	1718673	83	3.1885299398926
11	1773787	84	10.958616789279
11	1828716	85	1.1665679901581
11	1886015	86	9.7348924653342
11	1943224	87	3.1335319448719
11	2003040	88	10.264268482649
11	2062520	89	5.835194937568
11	2124396	90	9.0171983587863
11	2186273	91	7.962698160645
11	2250813	92	2.3140802948769
11	2315467	93	4.2328034077441
11	2382578	94	11.170670000613
11	2449661	95	-0.54011308077458
11	2519146	96	8.0089127438299
11	2588725	97	3.0254782272135
11	2660704	98	5.8730836191812
11	2732300	99	13.198086024626
11	2806084	100	3.1830084267638
11	2879342	101	10.41181588354
11	2954898	102	6.6153775084956
11	3030319	103	5.0191939332047
11	3108242	104	8.1594211015095
11	3186183	105	2.6179318234065
11	3266425	106	1.3466559563736
11	3346320	107	8.5156750807785
11	3428611	108	3.6717909309208
11	3510752	109	11.410214179829
11	3595229	110	6.8684531617532
11	3679383	111	0.59339106134572
11	3765876	112	15.022622435071
11	3851942	113	3.3601197116718
11	3940705	114	0.34099613449761
11	4029176	115	9.2898511204014
11	4119411	116	7.4764164153293
11	4209375	117	2.4304119511574
11	4301129	118	11.622064163749
11	4392450	119	0.20065884286088
11	4486099	120	5.8160998988258
11	4579523	121	9.8771313261637
11	4675137	122	1.1991649042197
11	4770586	123	13.249809321377
11	4868496	124	0.16250905578404
11	4966252	125	10.598680879918
11	5065484	126	3.3474251434168
11	5164601	127	9.675245248877
11	5266255	128	6.265482749698
11	5367921	129	5.1525264095692
11	5472153	130	7.7131320315638
11	5576291	131	7.9120220712686
11	5683094	132	-0.50675940795436
11	5789908	133	14.472558096295
11	5899464	134	-1.1505754536504
11	6008581	135	11.421261923646
11	6120226	136	2.5455243293141
11	6231431	137	9.726492457158
11	6344761	138	4.5572026810223
11	6457623	139	1.0452975217372
11	6572857	140	5.5128789455556
11	6687696	141	6.201702364691
11	6805479	142	8.8042077347742
11	6923435	143	9.0990426835239
11	7044004	144	4.5247409528175
11	7164958	145	7.9900653281921
11	7289288	146	1.8985461332125
11	7413315	147	9.4818154126768
11	7540162	148	9.6001863551929
11	7666924	149	1.1535379895063
11	7796816	150	3.1381022875096
11	7926624	151	12.322951900646
11	8058012	152	7.133187456904
10	786	5	0.14053249324206
10	1417	6	0.072350241243839
10	2048	7	-0.098350648768246
10	3129	8	0.23247060802532
10	4210	9	-0.65759444260038
10	5861	10	0.21492216328625
10	7512	11	0.49867530033225
10	9853	12	0.3820693702437
10	12194	13	-0.86378432490164
10	15265	14	-0.026252258685417
10	18416	15	0.098157390311826
10	22337	16	0.57009630021639
10	26258	17	0.3072072667419
10	30989	18	-1.1047608416993
10	35720	19	1.0529662561021
10	41381	20	-0.31900360394502
10	46962	21	-0.80440114950761
10	53513	22	0.61579812056152
10	60064	23	0.41015977913048
10	67625	24	0.052605685486924
10	75186	25	0.095138410979416
10	83797	26	-0.49284414504655
10	92408	27	-0.63361827953486
10	102109	28	0.82053430960514
10	111810	29	-0.54875889560208
10	122561	30	-0.31126466055866
10	133312	31	0.87869091774337
10	145154	32	-0.46126535744406
10	156995	33	0.64493150130147
10	170046	34	-0.048000678652897
10	183098	35	-1.0719788749702
10	197400	36	0.73957963148132
10	211702	37	-0.44716050033458
10	227204	38	-0.13707658014027
10	242711	39	0.32575876190094
10	259544	40	0.15438393835211
10	276381	41	0.52901146380464
10	294589	42	-1.0179197165417
10	312687	43	0.5318195396103
10	332198	44	-0.23766832833644
10	351514	45	0.55174834182253
10	372193	46	-0.10910221142694
10	392807	47	-0.85668450570665
10	414839	48	0.44952305412153
10	436936	49	0.27093043812783
10	460471	50	0.33580588555196
10	484005	51	-0.3081826743437
10	509093	52	0.40273212449392
10	534115	53	-0.025135463802144
10	560808	54	-0.39464904664783
10	587567	55	0.081194104568567
10	615875	56	-0.72640414233319
10	644198	57	0.47124316188274
10	674196	58	-0.015927118365653
10	704207	59	0.59910833806498
10	735795	60	-1.0745783874881
10	767523	61	0.67466186621459
10	801021	62	-0.31095034006285
10	834522	63	0.70195406122366
10	869767	64	-0.69150271418039
10	905089	65	0.4411918783444
10	942099	66	-0.38057141471654
10	979112	67	-0.51750175887719
10	1017886	68	1.1852065593121
10	1056687	69	-0.48897396627581
10	1097429	70	-0.2163672473398
10	1138116	71	-0.41298230615212
10	1180773	72	-0.0039330459549092
10	1224490	73	0.60465362621471
10	1270046	74	-0.33660463028355
10	1315596	75	-0.08747118874453
10	1363189	76	0.80368816532427
10	1410587	77	-0.49713783373591
10	1460056	78	-0.47467446507653
10	1509459	79	0.892951823771
10	1560886	80	-0.89855578669813
10	1612244	81	0.80841491493629
10	1665531	82	-0.43611540168058
10	1718673	83	-0.35255641385447
10	1773787	84	0.59078806545585
10	1828716	85	-0.60723571892595
10	1886015	86	0.44829211226897
10	1943224	87	-0.36180547438562
10	2003040	88	0.50563296186738
10	2062520	89	-0.041739445296116
10	2124396	90	0.33493474096758
10	2186273	91	0.19540064356988
10	2250813	92	-0.4803823272232
10	2315467	93	-0.23382976040011
10	2382578	94	0.59487997699762
10	2449661	95	-0.82524296449265
10	2519146	96	0.23720779659925
10	2588725	97	-0.37261588935507
10	2660704	98	-0.01263135636691
10	2732300	99	0.85199558379827
10	2806084	100	-0.36838231782895
10	2879342	101	0.50113063305616
10	2954898	102	0.034128127445001
10	3030319	103	-0.15514126571361
10	3108242	104	0.21990354231093
10	3186183	105	-0.44358542043483
10	3266425	106	-0.58561506855767
10	3346320	107	0.3019924912951
10	3428611	108	-0.29282214818522
10	3510752	109	0.64129197387956
10	3595229	110	0.076259530032985
10	3679383	111	-0.68162382260198
10	3765876	112	1.0535845093546
10	3851942	113	-0.35696921055205
10	3940705	114	-0.71303157310467
10	4029176	115	0.39203269756399
10	4119411	116	0.15849994815653
10	4209375	117	-0.45282525883522
10	4301129	118	0.65881126996828
10	4392450	119	-0.73125802126015
10	4486099	120	-0.023498765658587
10	4579523	121	0.46101219893899
10	4675137	122	-0.60140093177324
10	4770586	123	0.86158581252676
10	4868496	124	-0.73524691048078
10	4966252	125	0.546300651622
10	5065484	126	-0.34089499968104
10	5164601	127	0.42691459442722
10	5266255	128	0.0051463596173562
10	5367921	129	-0.12725370732369
10	5472153	130	0.1813792611938
10	5576291	131	0.19599257153459
10	5683094	132	-0.82084966212278
10	5789908	133	0.9884852624964
10	5899464	134	-0.90323373733554
10	6008581	135	0.63305631803814
10	6120226	136	-0.44544941280037
10	6231431	137	0.42562266316963
10	6344761	138	-0.20311438158387
10	6457623	139	-0.62250643182779
10	6572857	140	-0.05618772120215
10	6687696	141	0.029588130419143
10	6805479	142	0.33981916785706
10	6923435	143	0.35692616249435
10	7044004	144	-0.20125152746914
10	7164958	145	0.21883624896873
10	7289288	146	-0.51955457020085
10	7413315	147	0.40951572154881
10	7540162	148	0.40135816903785
10	7666924	149	-0.61804982222384
10	7796816	150	-0.35841257107677
10	7926624	151	0.75021788128652
10	8058012	152	0.1047571079107
7	485	4	33.144329647804
7	786	5	33.284862141046
7	1417	6	33.35721238229
7	2048	7	33.258861733522
7	3129	8	33.491332341547
7	4210	9	32.833737898947
7	5861	10	33.048660062233
7	7512	11	33.547335362565
7	9853	12	33.929404732809
7	12194	13	33.065620407907
7	15265	14	33.039368149222
7	18416	15	33.137525539533
7	22337	16	33.70762183975
7	26258	17	34.014829106492
7	30989	18	32.910068264792
7	35720	19	33.963034520895
7	41381	20	33.64403091695
7	46962	21	32.839629767442
7	53513	22	33.455427888003
7	60064	23	33.865587667134
7	67625	24	33.918193352621
7	75186	25	34.0133317636
7	83797	26	33.520487618554
7	92408	27	32.886869339019
7	102109	28	33.707403648624
7	111810	29	33.158644753022
7	122561	30	32.847380092463
7	133312	31	33.726071010207
7	145154	32	33.264805652763
7	156995	33	33.909737154064
7	170046	34	33.861736475411
7	183098	35	32.789757600441
7	197400	36	33.529337231922
7	211702	37	33.082176731588
7	227204	38	32.945100151447
7	242711	39	33.270858913348
7	259544	40	33.4252428517
7	276381	41	33.954254315505
7	294589	42	32.936334598963
7	312687	43	33.468154138574
7	332198	44	33.230485810237
7	351514	45	33.78223415206
7	372193	46	33.673131940633
7	392807	47	32.816447434926
7	414839	48	33.265970489048
7	436936	49	33.536900927176
7	460471	50	33.872706812728
7	484005	51	33.564524138384
7	509093	52	33.967256262878
7	534115	53	33.942120799076
7	560808	54	33.547471752428
7	587567	55	33.628665856996
7	615875	56	32.902261714663
7	644198	57	33.373504876546
7	674196	58	33.35757775818
7	704207	59	33.956686096245
7	735795	60	32.882107708757
7	767523	61	33.556769574972
7	801021	62	33.245819234909
7	834522	63	33.947773296132
7	869767	64	33.256270581952
7	905089	65	33.697462460296
7	942099	66	33.31689104558
7	979112	67	32.799389286703
7	1017886	68	33.984595846015
7	1056687	69	33.495621879739
7	1097429	70	33.279254632399
7	1138116	71	32.866272326247
7	1180773	72	32.862339280292
7	1224490	73	33.466992906507
7	1270046	74	33.130388276223
7	1315596	75	33.042917087479
7	1363189	76	33.846605252803
7	1410587	77	33.349467419067
7	1460056	78	32.874792953991
7	1509459	79	33.767744777762
7	1560886	80	32.869188991064
7	1612244	81	33.677603906
7	1665531	82	33.241488504319
7	1718673	83	32.888932090465
7	1773787	84	33.479720155921
7	1828716	85	32.872484436995
7	1886015	86	33.320776549264
7	1943224	87	32.958971074878
7	2003040	88	33.464604036745
7	2062520	89	33.422864591449
7	2124396	90	33.757799332417
7	2186273	91	33.953199975987
7	2250813	92	33.472817648764
7	2315467	93	33.238987888363
7	2382578	94	33.833867865361
7	2449661	95	33.008624900868
7	2519146	96	33.245832697468
7	2588725	97	32.873216808113
7	2660704	98	32.860585451746
7	2732300	99	33.712581035544
7	2806084	100	33.344198717715
7	2879342	101	33.845329350771
7	2954898	102	33.879457478216
7	3030319	103	33.724316212503
7	3108242	104	33.944219754814
7	3186183	105	33.500634334379
7	3266425	106	32.915019265821
7	3346320	107	33.217011757116
7	3428611	108	32.924189608931
7	3510752	109	33.56548158281
7	3595229	110	33.641741112843
7	3679383	111	32.960117290241
7	3765876	112	34.013701799596
7	3851942	113	33.656732589044
7	3940705	114	32.943701015939
7	4029176	115	33.335733713503
7	4119411	116	33.49423366166
7	4209375	117	33.041408402825
7	4301129	118	33.700219672793
7	4392450	119	32.968961651533
7	4486099	120	32.945462885874
7	4579523	121	33.406475084813
7	4675137	122	32.80507415304
7	4770586	123	33.666659965567
7	4868496	124	32.931413055086
7	4966252	125	33.477713706708
7	5065484	126	33.136818707027
7	5164601	127	33.563733301454
7	5266255	128	33.568879661071
7	5367921	129	33.441625953748
7	5472153	130	33.623005214941
7	5576291	131	33.818997786476
7	5683094	132	32.998148124353
7	5789908	133	33.98663338685
7	5899464	134	33.083399649514
7	6008581	135	33.716455967552
7	6120226	136	33.271006554752
7	6231431	137	33.696629217922
7	6344761	138	33.493514836338
7	6457623	139	32.87100840451
7	6572857	140	32.814820683308
7	6687696	141	32.844408813727
7	6805479	142	33.184227981584
7	6923435	143	33.541154144078
7	7044004	144	33.339902616609
7	7164958	145	33.558738865578
7	7289288	146	33.039184295377
7	7413315	147	33.448700016926
7	7540162	148	33.850058185964
7	7666924	149	33.23200836374
7	7796816	150	32.873595792663
7	7926624	151	33.62381367395
7	8058012	152	33.72857078186
4	184	3	26.65
4	485	4	26.65
4	786	5	26.65
4	1417	6	26.65
4	2048	7	26.65
4	3129	8	26.65
4	4210	9	26.65
4	5861	10	26.65
4	7512	11	26.65
4	9853	12	26.65
4	12194	13	26.65
4	15265	14	26.65
4	18416	15	26.65
4	22337	16	29.95
4	26258	17	29.95
4	30989	18	29.95
4	35720	19	29.95
4	41381	20	29.95
4	46962	21	29.95
4	53513	22	29.95
4	60064	23	29.95
4	67625	24	29.95
4	75186	25	29.95
4	83797	26	29.95
4	92408	27	29.95
4	102109	28	29.95
4	111810	29	29.95
4	122561	30	29.95
4	133312	31	29.95
4	145154	32	29.95
4	156995	33	29.95
4	170046	34	29.95
4	183098	35	29.95
4	197400	36	29.95
4	211702	37	29.95
4	227204	38	29.95
4	242711	39	29.95
4	259544	40	29.95
4	276381	41	29.95
4	294589	42	29.95
4	312687	43	29.95
4	332198	44	29.95
4	351514	45	29.95
4	372193	46	29.95
4	392807	47	29.95
4	414839	48	29.95
4	436936	49	29.95
4	460471	50	29.95
4	484005	51	29.95
4	509093	52	29.95
4	534115	53	29.95
4	560808	54	29.95
4	587567	55	29.95
4	615875	56	29.95
4	644198	57	29.95
4	674196	58	29.95
4	704207	59	29.95
4	735795	60	29.95
4	767523	61	29.95
4	801021	62	29.95
4	834522	63	29.95
4	869767	64	29.95
4	905089	65	29.95
4	942099	66	29.95
4	979112	67	29.95
4	1017886	68	29.95
4	1056687	69	29.95
4	1097429	70	29.95
4	1138116	71	29.95
4	1180773	72	29.95
4	1224490	73	29.95
4	1270046	74	29.95
4	1315596	75	29.95
4	1363189	76	29.95
4	1410587	77	29.95
4	1460056	78	29.95
4	1509459	79	29.95
4	1560886	80	29.95
4	1612244	81	29.95
4	1665531	82	29.95
4	1718673	83	29.95
4	1773787	84	29.95
4	1828716	85	29.95
4	1886015	86	29.95
4	1943224	87	29.95
4	2003040	88	29.95
4	2062520	89	29.95
4	2124396	90	29.95
4	2186273	91	29.95
4	2250813	92	29.95
4	2315467	93	29.95
4	2382578	94	29.95
4	2449661	95	29.95
4	2519146	96	29.95
4	2588725	97	29.95
4	2660704	98	29.95
4	2732300	99	29.95
4	2806084	100	29.95
4	2879342	101	29.95
4	2954898	102	29.95
4	3030319	103	29.95
4	3108242	104	29.95
4	3186183	105	29.95
4	3266425	106	29.95
4	3346320	107	29.95
4	3428611	108	29.95
4	3510752	109	29.95
4	3595229	110	29.95
4	3679383	111	29.95
4	3765876	112	29.95
4	3851942	113	29.95
4	3940705	114	29.95
4	4029176	115	29.95
4	4119411	116	29.95
4	4209375	117	29.95
4	4301129	118	29.95
4	4392450	119	29.95
4	4486099	120	29.95
4	4579523	121	29.95
4	4675137	122	29.95
4	4770586	123	29.95
4	4868496	124	29.95
4	4966252	125	29.95
4	5065484	126	29.95
4	5164601	127	29.95
4	5266255	128	29.95
4	5367921	129	29.95
4	5472153	130	29.95
4	5576291	131	29.95
4	5683094	132	29.95
4	5789908	133	29.95
4	5899464	134	29.95
4	6008581	135	29.95
4	6120226	136	29.95
4	6231431	137	29.95
4	6344761	138	29.95
4	6457623	139	29.95
4	6572857	140	29.95
4	6687696	141	29.95
4	6805479	142	29.95
4	6923435	143	29.95
4	7044004	144	29.95
4	7164958	145	29.95
4	7289288	146	29.95
4	7413315	147	29.95
4	7540162	148	29.95
4	7666924	149	29.95
4	7796816	150	29.95
4	7926624	151	29.95
4	8058012	152	29.95
3	184	3	30.1
3	485	4	30.1
3	786	5	63.244329647804
3	1417	6	96.52919178885
3	2048	7	129.88640417114
3	3129	8	163.14526590466
3	4210	9	196.63659824621
3	5861	10	229.47033614515
3	7512	11	262.51899620739
3	9853	12	296.06633156995
3	12194	13	329.99573630276
3	15265	14	363.06135671067
3	18416	15	396.10072485989
3	22337	16	429.23825039942
3	26258	17	462.94587223917
3	30989	18	496.96070134567
3	35720	19	529.87076961046
3	41381	20	563.83380413135
3	46962	21	597.4778350483
3	53513	22	630.31746481574
3	60064	23	663.77289270375
3	67625	24	697.63848037088
3	75186	25	731.5566737235
3	83797	26	765.5700054871
3	92408	27	799.09049310566
3	102109	28	831.97736244467
3	111810	29	865.6847660933
3	122561	30	898.84341084632
3	133312	31	931.69079093878
3	145154	32	965.41686194899
3	156995	33	998.68166760175
3	170046	34	1032.5914047558
3	183098	35	1066.4531412312
3	197400	36	1099.2428988317
3	211702	37	1132.7722360636
3	227204	38	1165.8544127952
3	242711	39	1198.7995129466
3	259544	40	1232.07037186
3	276381	41	1265.4956147117
3	294589	42	1299.4498690272
3	312687	43	1332.3862036261
3	332198	44	1365.8543577647
3	351514	45	1399.084843575
3	372193	46	1432.867077727
3	392807	47	1466.5402096676
3	414839	48	1499.3566571026
3	436936	49	1532.6226275916
3	460471	50	1566.1595285188
3	484005	51	1600.0322353315
3	509093	52	1633.5967594699
3	534115	53	1667.5640157328
3	560808	54	1701.5061365319
3	587567	55	1735.0536082843
3	615875	56	1768.6822741413
3	644198	57	1801.5845358559
3	674196	58	1834.9580407325
3	704207	59	1868.3156184907
3	735795	60	1902.2723045869
3	767523	61	1935.1544122957
3	801021	62	1968.7111818706
3	834522	63	2001.9570011056
3	869767	64	2035.9047744017
3	905089	65	2069.1610449836
3	942099	66	2102.8585074439
3	979112	67	2136.1753984895
3	1017886	68	2168.9747877762
3	1056687	69	2202.9593836222
3	1097429	70	2236.455005502
3	1138116	71	2269.7342601344
3	1180773	72	2302.6005324606
3	1224490	73	2335.4628717409
3	1270046	74	2368.9298646474
3	1315596	75	2402.0602529236
3	1363189	76	2435.1031700111
3	1410587	77	2468.9497752639
3	1460056	78	2502.299242683
3	1509459	79	2535.174035637
3	1560886	80	2568.9417804147
3	1612244	81	2601.8109694058
3	1665531	82	2635.4885733118
3	1718673	83	2668.7300618161
3	1773787	84	2701.6189939066
3	1828716	85	2735.0987140625
3	1886015	86	2767.9711984995
3	1943224	87	2801.2919750488
3	2003040	88	2834.2509461236
3	2062520	89	2867.7155501604
3	2124396	90	2901.1384147518
3	2186273	91	2934.8962140843
3	2250813	92	2968.8494140602
3	2315467	93	3002.322231709
3	2382578	94	3035.5612195974
3	2449661	95	3069.3950874627
3	2519146	96	3102.4037123636
3	2588725	97	3135.6495450611
3	2660704	98	3168.5227618692
3	2732300	99	3201.3833473209
3	2806084	100	3235.0959283565
3	2879342	101	3268.4401270742
3	2954898	102	3302.285456425
3	3030319	103	3336.1649139032
3	3108242	104	3369.8892301157
3	3186183	105	3403.8334498705
3	3266425	106	3437.3340842049
3	3346320	107	3470.2491034707
3	3428611	108	3503.4661152278
3	3510752	109	3536.3903048367
3	3595229	110	3569.9557864195
3	3679383	111	3603.5975275324
3	3765876	112	3636.5576448226
3	3851942	113	3670.5713466222
3	3940705	114	3704.2280792113
3	4029176	115	3737.1717802272
3	4119411	116	3770.5075139407
3	4209375	117	3804.0017476024
3	4301129	118	3837.0431560052
3	4392450	119	3870.743375678
3	4486099	120	3903.7123373295
3	4579523	121	3936.6578002154
3	4675137	122	3970.0642753002
3	4770586	123	4002.8693494532
3	4868496	124	4036.5360094188
3	4966252	125	4069.4674224739
3	5065484	126	4102.9451361806
3	5164601	127	4136.0819548876
3	5266255	128	4169.6456881891
3	5367921	129	4203.2145678502
3	5472153	130	4236.6561938039
3	5576291	131	4270.2791990188
3	5683094	132	4304.0981968053
3	5789908	133	4337.0963449297
3	5899464	134	4371.0829783165
3	6008581	135	4404.166377966
3	6120226	136	4437.8828339336
3	6231431	137	4471.1538404883
3	6344761	138	4504.8504697063
3	6457623	139	4538.3439845426
3	6572857	140	4571.2149929471
3	6687696	141	4604.0298136304
3	6805479	142	4636.8742224441
3	6923435	143	4670.0584504257
3	7044004	144	4703.5996045698
3	7164958	145	4736.9395071864
3	7289288	146	4770.498246052
3	7413315	147	4803.5374303474
3	7540162	148	4836.9861303643
3	7666924	149	4870.8361885503
3	7796816	150	4904.068196914
3	7926624	151	4936.9417927067
3	8058012	152	4970.5656063806
vector 383 HighwayScenario1.node[77].veinsmobility posx ETV
vector 384 HighwayScenario1.node[77].veinsmobility posy ETV
vector 385 HighwayScenario1.node[76].veinsmobility acceleration ETV
vector 386 HighwayScenario1.node[76].veinsmobility co2emission ETV
vector 387 HighwayScenario1.node[77].veinsmobility speed ETV
vector 388 HighwayScenario1.node[78].veinsmobility posx ETV
vector 389 HighwayScenario1.node[78].veinsmobility posy ETV
vector 390 HighwayScenario1.node[77].veinsmobility acceleration ETV
vector 391 HighwayScenario1.node[77].veinsmobility co2emission ETV
16	2048	7	6.5282691030966
16	3129	8	9.6106879214466
16	4210	9	1.8823418123808
16	5861	10	6.0685614087951
16	7512	11	2.4223946637931
16	9853	12	10.839851054179
16	12194	13	0.97608529710855
16	15265	14	6.8456474185666
16	18416	15	8.4929362858638
16	22337	16	9.7723757408924
16	26258	17	4.7746015736163
16	30989	18	2.4530193239541
16	35720	19	3.05145870385
16	41381	20	9.6381608201497
16	46962	21	11.39124872842
16	53513	22	2.3663288953915
16	60064	23	2.9583399096858
16	67625	24	3.9772891936304
16	75186	25	15.772824062645
16	83797	26	0.973
16	92408	27	9.4602958180578
16	102109	28	10.196058102742
16	111810	29	0.51218177033323
16	122561	30	6.5510945726586
16	133312	31	7.0312189887201
16	145154	32	5.7859880233348
16	156995	33	9.275028542756
16	170046	34	5.4457599057667
16	183098	35	1.2619646065867
16	197400	36	14.50809540497
16	211702	37	2.8622525391654
16	227204	38	6.2984868840558
16	242711	39	2.6914784797016
16	259544	40	3.0203283324
16	276381	41	8.2178110074286
16	294589	42	10.426956342332
16	312687	43	2.3541457879687
16	332198	44	8.3397051815654
16	351514	45	9.4693308310983
16	372193	46	4.7464144555403
16	392807	47	1.0082041793903
16	414839	48	6.1038315818407
16	436936	49	8.695117297505
16	460471	50	8.0315401723927
16	484005	51	2.0029092098631
16	509093	52	6.6781187613947
16	534115	53	8.0027024700003
16	560808	54	9.5061350709859
16	587567	55	0.34572441454853
16	615875	56	3.1600037882214
16	644198	57	14.385725827732
16	674196	58	5.5203610459818
16	704207	59	5.553997651611
16	735795	60	5.277701500543
16	767523	61	9.7266628093888
16	801021	62	1.1719171091334
16	834522	63	1.7632024594299
16	869767	64	12.535324692393
16	905089	65	3.9666773705308
16	942099	66	8.733790778807
16	979112	67	3.775473039066
16	1017886	68	1.9674671678206
16	1056687	69	15.015294800695
16	1097429	70	3.6582041023078
16	1138116	71	2.75816150892
16	1180773	72	3.8541284774246
16	1224490	73	9.473484377043
16	1270046	74	8.01506279985
16	1315596	75	5.7306704695779
16	1363189	76	6.488295710593
16	1410587	77	6.9080563145727
16	1460056	78	4.5692395810743
16	1509459	79	2.428121988684
16	1560886	80	12.899129672603
16	1612244	81	6.5979840149108
16	1665531	82	1.3760680675229
16	1718673	83	11.585018920149
16	1773787	84	-1.5800660721963
16	1828716	85	7.7040996489983
16	1886015	86	9.3166804657181
16	1943224	87	7.0847918886125
16	2003040	88	-0.25165691554635
16	2062520	89	11.098989804651
16	2124396	90	8.6491852224751
16	2186273	91	6.7974277294015
16	2250813	92	4.5865945201426
16	2315467	93	1.0511648250976
16	2382578	94	4.9754990121126
16	2449661	95	8.2754190136787
16	2519146	96	10.728288620646
16	2588725	97	3.8221357121655
16	2660704	98	6.6212856823058
16	2732300	99	4.9473236856844
16	2806084	100	5.9154860323417
16	2879342	101	7.9369897646014
16	2954898	102	1.0638000739522
16	3030319	103	4.7436207980631
16	3108242	104	10.539912656015
16	3186183	105	1.9379048309313
16	3266425	106	13.574157245197
16	3346320	107	2.4462293732301
16	3428611	108	2.9328737065595
16	3510752	109	4.2041387601198
16	3595229	110	7.1842079788821
16	3679383	111	6.8376535396126
16	3765876	112	8.3011515066516
16	3851942	113	6.5336940826552
16	3940705	114	1.6036642564241
16	4029176	115	11.831729884663
16	4119411	116	-0.12823357158705
16	4209375	117	14.392096504596
16	4301129	118	6.2112888951588
16	4392450	119	0.085901062229212
16	4486099	120	6.876784516933
16	4579523	121	5.8548560738522
16	4675137	122	6.9265907852514
16	4770586	123	7.0345525867243
16	4868496	124	6.3006997321278
16	4966252	125	6.8949093532667
16	5065484	126	8.8514766386529
16	5164601	127	3.6218873698911
16	5266255	128	8.3812726820703
16	5367921	129	5.1552015944101
16	5472153	130	2.000963577771
16	5576291	131	9.9569039227826
16	5683094	132	-0.43404172813415
16	5789908	133	14.420298117738
16	5899464	134	2.3184655671124
16	6008581	135	6.4952755022802
16	6120226	136	2.0658926303524
16	6231431	137	7.4687092653289
16	6344761	138	9.4716968048116
16	6457623	139	0.56674826508135
16	6572857	140	10.778350353477
16	6687696	141	7.8777160537221
16	6805479	142	4.2353194315973
16	6923435	143	9.4919620558383
16	7044004	144	6.3880728315107
16	7164958	145	5.0796024526239
16	7289288	146	6.7093057873796
16	7413315	147	6.8261349073288
16	7540162	148	7.5246263844963
16	7666924	149	-2.2267701365413
16	7796816	150	11.678657133961
16	7926624	151	3.2442112522473
16	8058012	152	9.1704378854217
16	8189486	153	2.0694808299986
16	8322896	154	13.052225246316
16	8456275	155	0.973
15	2048	7	0.04909136070637
15	3129	8	0.4095859156223
15	4210	9	-0.5261901699123
15	5861	10	-0.002890074683819
15	7512	11	-0.44512699678307
15	9853	12	0.58479653933318
15	12194	13	-0.62730714213103
15	15265	14	0.11194759426871
15	18416	15	0.30394493427593
15	22337	16	0.43880110461032
15	26258	17	-0.17226082447451
15	30989	18	-0.44709911715472
15	35720	19	-0.35998596344143
15	41381	20	0.45247300236952
15	46962	21	0.63223232486052
15	53513	22	-0.46581587288529
15	60064	23	-0.37955997075187
15	67625	24	-0.24199939653045
15	75186	25	1.1659465124831
15	83797	26	-1.0988096048823
15	92408	27	0.42786122212419
15	102109	28	0.49094391462859
15	111810	29	-0.69000332121504
15	122561	30	0.068923059443478
15	133312	31	0.12347837124253
15	145154	32	-0.031400426232722
15	156995	33	0.38513861130923
15	170046	34	-0.086599429778289
15	183098	35	-0.5919728227309
15	197400	36	1.0098971793195
15	211702	37	-0.40844459086657
15	227204	38	0.018282975652255
15	242711	39	-0.41717367450474
15	259544	40	-0.36393258342287
15	276381	41	0.2830026781885
15	294589	42	0.52977174695116
15	312687	43	-0.45933891000459
15	332198	44	0.27989106252789
15	351514	45	0.39840957528213
15	372193	46	-0.17758410365786
15	392807	47	-0.62578388489783
15	414839	48	0.017770173144527
15	436936	49	0.32750879065134
15	460471	50	0.23251084145159
15	484005	51	-0.50216744333738
15	509093	52	0.083755502710119
15	534115	53	0.23817694542231
15	560808	54	0.4031055176165
15	587567	55	-0.71153785072966
15	615875	56	-0.34523168695159
15	644198	57	1.0089964960935
15	674196	58	-0.083385833131615
15	704207	59	-0.076015377126168
15	735795	60	-0.10597525688354
15	767523	61	0.42397143261041
15	801021	62	-0.61270342965145
15	834522	63	-0.52409447089303
15	869767	64	0.79285900603281
15	905089	65	-0.26271323295077
15	942099	66	0.31737772224005
15	979112	67	-0.28772062680218
15	1017886	68	-0.49978804163402
15	1056687	69	1.0747981406166
15	1097429	70	-0.31163373671006
15	1138116	71	-0.41041426040465
15	1180773	72	-0.26320960925659
15	1224490	73	0.42469999665627
15	1270046	74	0.23038461455144
15	1315596	75	-0.051271476258989
15	1363189	76	0.041136234358419
15	1410587	77	0.089107984967995
15	1460056	78	-0.19337970239576
15	1509459	79	-0.44678339560051
15	1560886	80	0.81938666844508
15	1612244	81	0.040573551377747
15	1665531	82	-0.5869207289652
15	1718673	83	0.6506657769205
15	1773787	84	-0.95290750265121
15	1828716	85	0.2108275151113
15	1886015	86	0.39145182614448
15	1943224	87	0.1090135530103
15	2003040	88	-0.78344053996261
15	2062520	89	0.6164755197824
15	2124396	90	0.29580696689663
15	2186273	91	0.064418519323226
15	2250813	92	-0.20002324221423
15	2315467	93	-0.62213172874181
15	2382578	94	-0.1220856924192
15	2449661	95	0.28102951706387
15	2519146	96	0.55491160659585
15	2588725	97	-0.28769349271897
15	2660704	98	0.058284637343604
15	2732300	99	-0.14411433046916
15	2806084	100	-0.02223862305982
15	2879342	101	0.21918999380432
15	2954898	102	-0.61850670172134
15	3030319	103	-0.14728383917827
15	3108242	104	0.55514218169264
15	3186183	105	-0.50518697098596
15	3266425	106	0.90543069934938
15	3346320	107	-0.45439188659657
15	3428611	108	-0.38120610872284
15	3510752	109	-0.21239648776827
15	3595229	110	0.15955737966578
15	3679383	111	0.11039852950489
15	3765876	112	0.28055308706826
15	3851942	113	0.056494506716263
15	3940705	114	-0.54540719633223
15	4029176	115	0.70849829266081
15	4119411	116	-0.76453963149106
15	4209375	117	1.0089043248445
15	4301129	118	-0.0019176644855179
15	4392450	119	-0.74283207155531
15	4486099	120	0.11014170915587
15	4579523	121	-0.017798694316298
15	4675137	122	0.11194601247553
15	4770586	123	0.1197780444636
15	4868496	124	0.026741428300738
15	4966252	125	0.096484751557
15	5065484	126	0.32286873087287
15	5164601	127	-0.31196033756714
15	5266255	128	0.26716116815805
15	5367921	129	-0.1265728607541
15	5472153	130	-0.50354562466964
15	5576291	131	0.47125551238423
15	5683094	132	-0.80400398263009
15	5789908	133	1.0102947216365
15	5899464	134	-0.46975491015473
15	6008581	135	0.050926480034832
15	6120226	136	-0.48873045976507
15	6231431	137	0.18753998767352
15	6344761	138	0.41649702587165
15	6457623	139	-0.67728394787991
15	6572857	140	0.58499690669123
15	6687696	141	0.21182534372201
15	6805479	142	-0.2317414645222
15	6923435	143	0.40255059517222
15	7044004	144	0.018342567491345
15	7164958	145	-0.13763207738521
15	7289288	146	0.061525849741884
15	7413315	147	0.072585328598507
15	7540162	148	0.15136265923502
15	7666924	149	-1.0337701812387
15	7796816	150	0.68449810525635
15	7926624	151	-0.35123403242324
15	8058012	152	0.37184987304499
15	8189486	153	-0.49510830780491
15	8322896	154	0.83029536966933
15	8456275	155	-1.1110811444814
12	1417	6	33.269186957883
12	2048	7	33.318278318589
12	3129	8	33.727864234212
12	4210	9	33.201674064299
12	5861	10	33.198783989616
12	7512	11	32.753656992833
12	9853	12	33.338453532166
12	12194	13	32.711146390035
12	15265	14	32.823093984303
12	18416	15	33.127038918579
12	22337	16	33.56584002319
12	26258	17	33.393579198715
12	30989	18	32.94648008156
12	35720	19	32.586494118119
12	41381	20	33.038967120488
12	46962	21	33.671199445349
12	53513	22	33.205383572464
12	60064	23	32.825823601712
12	67625	24	32.583824205181
12	75186	25	33.749770717664
12	83797	26	32.650961112782
12	92408	27	33.078822334906
12	102109	28	33.569766249535
12	111810	29	32.87976292832
12	122561	30	32.948685987763
12	133312	31	33.072164359006
12	145154	32	33.040763932773
12	156995	33	33.425902544082
12	170046	34	33.339303114304
12	183098	35	32.747330291573
12	197400	36	33.757227470893
12	211702	37	33.348782880026
12	227204	38	33.367065855678
12	242711	39	32.949892181174
12	259544	40	32.585959597751
12	276381	41	32.868962275939
12	294589	42	33.398734022891
12	312687	43	32.939395112886
[...]
398	11594813	176	553.13324783348
398	11754059	177	586.40430095938
398	11914494	178	619.8229850087
398	12073105	179	653.0850481198
398	12234799	180	685.87685762545
399	9005758	159	29.95
399	9147713	160	29.95
399	9290113	161	29.95
399	9434414	162	29.95
399	9579058	163	29.95
399	9726519	164	29.95
399	9874252	165	29.95
399	10025547	166	29.95
399	10176437	167	29.95
399	10330780	168	29.95
399	10484927	169	29.95
399	10642447	170	29.95
399	10800042	171	29.95
399	10957155	172	29.95
399	11114651	173	29.95
399	11273536	174	29.95
399	11432581	175	29.95
399	11594813	176	26.65
399	11754059	177	26.65
399	11914494	178	26.65
399	12073105	179	26.65
399	12234799	180	26.65
400	9005758	159	-0.31336481770268
400	9147713	160	-0.30917630385375
400	9290113	161	0.52111352531938
400	9434414	162	-0.51742101844866
400	9579058	163	0.30058791104238
400	9726519	164	0.37837712734472
400	9874252	165	-0.73766342742601
400	10025547	166	0.24086500779958
400	10176437	167	0.65298459056066
400	10330780	168	0.058385915472172
400	10484927	169	0.21988748834701
400	10642447	170	-0.045841178798582
400	10800042	171	-0.5773147230676
400	10957155	172	-0.59663340971961
400	11114651	173	0.85815211612995
400	11273536	174	-1.4801263804557
400	11432581	175	-0.046301388638511
400	11594813	176	0.080599099025989
400	11754059	177	1.4586832112814
400	11914494	178	-1.0938727857555
400	12073105	179	-0.40591283853647
400	12234799	180	0.21674955142242
401	9005758	159	3.095733216575
401	9147713	160	3.0522114812164
401	9290113	161	9.4910016965719
401	9434414	162	1.4961631981955
401	9579058	163	7.7292121879951
401	9726519	164	8.4733263018286
401	9874252	165	-0.15849600615416
401	10025547	166	7.2337036322782
401	10176437	167	10.647184975726
401	10330780	168	6.1020987598448
401	10484927	169	7.4291027704598
401	10642447	170	5.3562788065074
401	10800042	171	1.1366488407131
401	10957155	172	0.88582459023226
401	11114651	173	12.177759879722
401	11273536	174	0.973
401	11432581	175	4.7882568554773
401	11594813	176	5.7392794084124
401	11754059	177	16.785156385655
401	11914494	178	0.973
401	12073105	179	2.1748363791265
401	12234799	180	6.7971154332397
402	9147713	160	32.519577486013
402	9290113	161	32.993256164694
402	9434414	162	33.453252578832
402	9579058	163	33.643459897934
402	9726519	164	32.894487980733
402	9874252	165	33.539282017658
402	10025547	166	33.080658196626
402	10176437	167	32.594234985781
402	10330780	168	33.262922612406
402	10484927	169	32.421198024007
402	10642447	170	32.834604944431
402	10800042	171	32.500311059331
402	10957155	172	32.796890275335
402	11114651	173	32.058211820257
402	11273536	174	31.603821794973
402	11432581	175	30.837077994475
402	11594813	176	33.2710531259
402	11754059	177	33.418684049314
402	11914494	178	33.2620631111
402	12073105	179	32.791809505646
402	12234799	180	32.561582516276
403	9290113	161	30.1
403	9434414	162	30.1
403	9579058	163	63.162081231914
403	9726519	164	96.939486755496
403	9874252	165	130.51575280805
403	10025547	166	164.17669456299
403	10176437	167	197.10805055765
403	10330780	168	230.44919335014
403	10484927	169	264.53312280959
403	10642447	170	297.94986204325
403	10800042	171	332.0259867995
403	10957155	172	366.0521609743
403	11114651	173	399.2303368405
403	11273536	174	432.31840243529
403	11432581	175	466.13671805967
403	11594813	176	499.49036069064
403	11754059	177	533.33113428376
403	11914494	178	567.30709952881
403	12073105	179	600.62389214753
403	12234799	180	634.51453904327
404	9290113	161	29.95
404	9434414	162	29.95
404	9579058	163	29.95
404	9726519	164	29.95
404	9874252	165	29.95
404	10025547	166	29.95
404	10176437	167	29.95
404	10330780	168	29.95
404	10484927	169	29.95
404	10642447	170	29.95
404	10800042	171	29.95
404	10957155	172	29.95
404	11114651	173	29.95
404	11273536	174	29.95
404	11432581	175	29.95
404	11594813	176	29.95
404	11754059	177	29.95
404	11914494	178	29.95
404	12073105	179	29.95
404	12234799	180	29.95
405	9290113	161	0.47367867868161
405	9434414	162	0.459996414138
405	9579058	163	0.19020731910132
405	9726519	164	-0.74897191720083
405	9874252	165	0.6447940369253
405	10025547	166	-0.45862382103223
405	10176437	167	-0.48642321084456
405	10330780	168	0.66868762662464
405	10484927	169	-0.84172458839907
405	10642447	170	0.41340692042444
405	10800042	171	-0.33429388509978
405	10957155	172	0.29657921600369
405	11114651	173	-0.73867845507858
405	11273536	174	-0.45439002528385
405	11432581	175	-0.7667438004982
405	11594813	176	2.4339751314255
405	11754059	177	0.14763092341432
405	11914494	178	-0.15662093821447
405	12073105	179	-0.47025360545376
405	12234799	180	-0.23022698936984
406	9290113	161	9.7857762807119
406	9434414	162	9.8908832664488
406	9579058	163	7.7930038832841
406	9726519	164	0.047379397285519
406	9874252	165	11.42503419171
406	10025547	166	2.3936828324716
406	10176437	167	2.0602479099702
406	10330780	168	11.474851258927
406	10484927	169	-0.75464154995677
406	10642447	170	9.2354411418082
406	10800042	171	3.2307178859106
406	10957155	172	8.2951965447723
406	11114651	173	-0.0069420424390989
406	11273536	174	2.0897239313198
406	11432581	175	-0.39176059240616
406	11594813	176	25.63369422631
406	11754059	177	7.3589117991673
406	11914494	178	4.8586045402833
406	12073105	179	2.232927535257
406	12234799	180	4.0633556557341
407	9434414	162	33.062081231914
407	9579058	163	33.777405523582
407	9726519	164	33.576266052554
407	9874252	165	33.660941754937
407	10025547	166	32.931355994664
407	10176437	167	33.341142792491
407	10330780	168	34.083929459451
407	10484927	169	33.416739233657
407	10642447	170	34.076124756251
407	10800042	171	34.0261741748
407	10957155	172	33.1781758662
407	11114651	173	33.088065594787
407	11273536	174	33.818315624379
407	11432581	175	33.353642630976
407	11594813	176	33.840773593114
407	11754059	177	33.975965245048
407	11914494	178	33.31679261872
407	12073105	179	33.890646895746
407	12234799	180	33.745620275735
408	9579058	163	30.1
408	9726519	164	30.1
408	9874252	165	61.557958795254
408	10025547	166	93.971955738361
408	10176437	167	126.02553147752
408	10330780	168	158.05262691056
408	10484927	169	190.33934951725
408	10642447	170	222.11834067928
408	10800042	171	254.74315442525
408	10957155	172	286.15846249033
408	11114651	173	318.07677713872
408	11273536	174	350.58629482372
408	11432581	175	382.55857677943
408	11594813	176	415.06170235435
408	11754059	177	446.88766610454
408	11914494	178	478.57555221197
408	12073105	179	510.59904985569
408	12234799	180	542.4042791203
409	9579058	163	29.95
409	9726519	164	29.95
409	9874252	165	29.95
409	10025547	166	29.95
409	10176437	167	29.95
409	10330780	168	29.95
409	10484927	169	29.95
409	10642447	170	29.95
409	10800042	171	29.95
409	10957155	172	29.95
409	11114651	173	29.95
409	11273536	174	29.95
409	11432581	175	29.95
409	11594813	176	29.95
409	11754059	177	29.95
409	11914494	178	29.95
409	12073105	179	29.95
409	12234799	180	29.95
410	9579058	163	0.71532429166837
410	9726519	164	-0.201139471028
410	9874252	165	0.08467570238281
410	10025547	166	-0.72958576027304
410	10176437	167	0.40978679782711
410	10330780	168	0.74278666696046
410	10484927	169	-0.66719022579491
410	10642447	170	0.65938552259468
410	10800042	171	-0.049950581451412
410	10957155	172	-0.84799830859993
410	11114651	173	-0.090110271412414
410	11273536	174	0.73025002959184
410	11432581	175	-0.46467299340293
410	11594813	176	0.4871309621376
410	11754059	177	0.13519165193429
410	11914494	178	-0.65917262632865
410	12073105	179	0.57385427702684
410	12234799	180	-0.14502662001178
411	9579058	163	12.122428298635
411	9726519	164	4.5989152732023
411	9874252	165	6.944032482533
411	10025547	166	0.20742873861562
411	10176437	167	9.4349472493259
411	10330780	168	12.513441457831
411	10484927	169	0.79603841102526
411	10642447	170	11.824236589969
411	10800042	171	5.9810638664416
411	10957155	172	-0.69614424771821
411	11114651	173	5.3340779698273
411	11273536	174	12.266053372434
411	11432581	175	2.4115299576241
411	11594813	176	10.295423733158
411	11754059	177	7.4791428065278
411	11914494	178	0.84082546370627
411	12073105	179	11.027861946776
411	12234799	180	5.1084036174155
412	9726519	164	31.457958795254
412	9874252	165	32.413996943106
412	10025547	166	32.053575739156
412	10176437	167	32.027095433041
412	10330780	168	32.286722606696
412	10484927	169	31.778991162028
412	10642447	170	32.62481374597
412	10800042	171	31.41530806508
412	10957155	172	31.918314648393
412	11114651	173	32.509517684994
412	11273536	174	31.972281955714
412	11432581	175	32.503125574913
412	11594813	176	31.825963750198
412	11754059	177	31.68788610743
412	11914494	178	32.023497643714
412	12073105	179	31.80522926461
412	12234799	180	32.497141266541
413	9874252	165	30.1
413	10025547	166	30.1
413	10176437	167	59.363600082564
413	10330780	168	88.564811363239
413	10484927	169	117.79050414668
413	10642447	170	146.95453058921
413	10800042	171	176.88390325785
413	10957155	172	205.73180512213
413	11114651	173	235.22558140614
413	11273536	174	264.00412047742
413	11432581	175	292.82095183359
413	11594813	176	321.76081114808
413	11754059	177	350.78091249994
413	11914494	178	380.18721263009
413	12073105	179	409.06734153371
413	12234799	180	438.51713373484
414	9874252	165	29.95
414	10025547	166	29.95
414	10176437	167	29.95
414	10330780	168	29.95
414	10484927	169	29.95
414	10642447	170	29.95
414	10800042	171	29.95
414	10957155	172	29.95
414	11114651	173	29.95
414	11273536	174	29.95
414	11432581	175	29.95
414	11594813	176	29.95
414	11754059	177	29.95
414	11914494	178	29.95
414	12073105	179	29.95
414	12234799	180	29.95
415	9874252	165	0.95603814785136
415	10025547	166	-0.36042120394995
415	10176437	167	-0.026480306114536
415	10330780	168	0.25962717365474
415	10484927	169	-0.50773144466802
415	10642447	170	0.84582258394221
415	10800042	171	-1.2095056808903
415	10957155	172	0.50300658331253
415	11114651	173	0.59120303660166
415	11273536	174	-0.53723572927993
415	11432581	175	0.530843619199
415	11594813	176	-0.67716182471486
415	11754059	177	-0.13807764276862
415	11914494	178	0.33561153628398
415	12073105	179	-0.21826837910339
415	12234799	180	0.69191200193018
416	9874252	165	13.288089461543
416	10025547	166	2.9143432561937
416	10176437	167	5.4853650556236
416	10330780	168	7.7968673348813
416	10484927	169	1.7192206774257
416	10642447	170	12.542039252221
416	10800042	171	0.973
416	10957155	172	9.5229729438668
416	11114651	173	10.484193622223
416	11273536	174	1.5319816033951
416	11432581	175	10.008292053972
416	11594813	176	0.42936439727676
416	11754059	177	4.5235130610291
416	11914494	178	8.278694624543
416	12073105	179	3.9433772855296
416	12234799	180	11.266943142953
417	10025547	166	29.263600082564
417	10176437	167	29.201211280675
417	10330780	168	29.225692783444
417	10484927	169	29.164026442527
417	10642447	170	29.929372668635
417	10800042	171	28.847901864288
417	10957155	172	29.493776284003
417	11114651	173	28.778539071287
417	11273536	174	28.816831356167
417	11432581	175	28.939859314492
417	11594813	176	29.020101351858
417	11754059	177	29.406300130145
417	11914494	178	28.880128903625
417	12073105	179	29.449792201127
417	12234799	180	29.687508636058
418	10176437	167	30.1
418	10330780	168	30.1
418	10484927	169	63.737913082547
418	10642447	170	96.014165912552
418	10800042	171	128.32360404568
418	10957155	172	160.41468973277
418	11114651	173	191.01875068655
418	11273536	174	223.59781812504
418	11432581	175	256.6102352757
418	11594813	176	290.43778229929
418	11754059	177	323.67058020486
418	11914494	178	356.69244950228
418	12073105	179	390.2648372966
418	12234799	180	423.12058322781
419	10176437	167	29.95
419	10330780	168	29.95
419	10484927	169	29.95
419	10642447	170	29.95
419	10800042	171	29.95
419	10957155	172	29.95
419	11114651	173	26.65
419	11273536	174	26.65
419	11432581	175	26.65
419	11594813	176	26.65
419	11754059	177	26.65
419	11914494	178	26.65
419	12073105	179	26.65
419	12234799	180	26.65
420	10176437	167	-0.062388801889028
420	10330780	168	0.024481502769049
420	10484927	169	-0.061666340916418
420	10642447	170	0.76534622610779
420	10800042	171	-1.0814708043472
420	10957155	172	0.64587441971526
420	11114651	173	-0.7152372127166
420	11273536	174	0.038292284880299
420	11432581	175	0.12302795832511
420	11594813	176	0.080242037365679
420	11754059	177	0.38619877828751
420	11914494	178	-0.52617122652009
420	12073105	179	0.56966329750139
420	12234799	180	0.23771643493092
421	10176437	167	4.3798570825868
421	10330780	168	4.9983218356862
421	10484927	169	4.3749239862838
421	10642447	170	10.550874172002
421	10800042	171	0.973
421	10957155	172	9.4937397395327
421	11114651	173	-0.26053710368036
421	11273536	174	4.9766644789923
421	11432581	175	5.6031585069363
421	11594813	176	5.3288468280349
421	11754059	177	7.6145777092525
421	11914494	178	1.0661724851817
421	12073105	179	8.933283040381
421	12234799	180	6.6600090108652
422	10330780	168	33.637913082547
422	10484927	169	32.276252830004
422	10642447	170	32.309438133124
422	10800042	171	32.091085687091
422	10957155	172	30.60406095378
422	11114651	173	32.579067438497
422	11273536	174	33.012417150657
422	11432581	175	33.827547023592
422	11594813	176	33.232797905565
422	11754059	177	33.021869297426
422	11914494	178	33.572387794319
422	12073105	179	32.85574593121
422	12234799	180	33.274060650782
423	10484927	169	30.1
423	10642447	170	30.1
423	10800042	171	60.01425901279
423	10957155	172	91.071222519995
423	11114651	173	121.56041289659
423	11273536	174	152.28423904206
423	11432581	175	182.31451568622
423	11594813	176	212.80141112218
423	11754059	177	243.30299434139
423	11914494	178	273.43025577904
423	12073105	179	303.63001193372
423	12234799	180	334.02636390958
424	10484927	169	29.95
424	10642447	170	29.95
424	10800042	171	29.95
424	10957155	172	29.95
424	11114651	173	29.95
424	11273536	174	29.95
424	11432581	175	29.95
424	11594813	176	29.95
424	11754059	177	29.95
424	11914494	178	29.95
424	12073105	179	29.95
424	12234799	180	29.95
425	10484927	169	-1.3616602525428
425	10642447	170	0.033185303119872
425	10800042	171	-0.21835244603312
425	10957155	172	-1.4870247333116
425	11114651	173	1.9750064847176
425	11273536	174	0.43334971215974
425	11432581	175	0.81512987293536
425	11594813	176	-0.59474911802681
425	11754059	177	-0.21092860813951
425	11914494	178	0.55051849689335
425	12073105	179	-0.71664186310954
425	12234799	180	0.41831471957266
426	10484927	169	0.973
426	10642447	170	6.0427449785428
426	10800042	171	4.0223405177715
426	10957155	172	0.973
426	11114651	173	21.38288190786
426	11273536	174	9.4738148168759
426	11432581	175	12.963027801272
426	11594813	176	1.3403178980286
426	11754059	177	4.3507724338644
426	11914494	178	10.679328243892
426	12073105	179	0.29689637258426
426	12234799	180	9.4728473815386
427	10642447	170	29.91425901279
427	10800042	171	31.056963507204
427	10957155	172	30.489190376598
427	11114651	173	30.723826145464
427	11273536	174	30.030276644162
427	11432581	175	30.486895435957
427	11594813	176	30.501583219217
427	11754059	177	30.127261437652
427	11914494	178	30.199756154676
427	12073105	179	30.396351975856
427	12234799	180	29.929080288626
428	10800042	171	30.1
428	10957155	172	30.1
428	11114651	173	64.19425969226
428	11273536	174	98.040557117207
428	11432581	175	131.89799584672
428	11594813	176	165.77006706338
428	11754059	177	200.17255250132
428	11914494	178	234.24768706862
428	12073105	179	268.23563414462
428	12234799	180	302.6371943846
429	10800042	171	26.65
429	10957155	172	26.65
429	11114651	173	26.65
429	11273536	174	26.65
429	11432581	175	26.65
429	11594813	176	26.65
429	11754059	177	26.65
429	11914494	178	26.65
429	12073105	179	26.65
429	12234799	180	26.65
430	10800042	171	1.1427044944139
430	10957155	172	-0.56777313060593
430	11114651	173	0.2346357688657
430	11273536	174	-0.69354950130219
430	11432581	175	0.45661879179534
430	11594813	176	0.014687783259433
430	11754059	177	-0.3743217815645
430	11914494	178	0.072494717023801
430	12073105	179	0.19659582118038
430	12234799	180	-0.4672716872301
431	10800042	171	13.928278582193
431	10957155	172	1.0271067820196
431	11114651	173	7.0086239613311
431	11273536	174	0.041026122780209
431	11432581	175	8.5532765030623
431	11594813	176	5.3108040348828
431	11754059	177	2.3716186872579
431	11914494	178	5.6388490504927
431	12073105	179	6.6108877055219
431	12234799	180	1.6599735170083
432	10957155	172	34.09425969226
432	11114651	173	33.846297424947
432	11273536	174	33.857438729514
432	11432581	175	33.87207121666
432	11594813	176	34.402485437944
432	11754059	177	34.075134567296
432	11914494	178	33.987947075997
432	12073105	179	34.40156023998
432	12234799	180	33.351747006431
433	11114651	173	30.1
433	11273536	174	30.1
433	11432581	175	63.254375242692
433	11594813	176	96.182182868755
433	11754059	177	128.37168090619
433	11914494	178	161.18972309109
433	12073105	179	193.48608840501
433	12234799	180	226.54077754056
434	11114651	173	29.95
434	11273536	174	29.95
434	11432581	175	29.95
434	11594813	176	29.95
434	11754059	177	29.95
434	11914494	178	29.95
434	12073105	179	29.95
434	12234799	180	29.95
435	11114651	173	-0.24796226731269
435	11273536	174	0.011141304566991
435	11432581	175	0.014632487145718
435	11594813	176	0.53041422128445
435	11754059	177	-0.32735087064793
435	11914494	178	-0.087187491299119
435	12073105	179	0.41361316398252
435	12234799	180	-1.0498132335488
436	11114651	173	4.3019677492367
436	11273536	174	6.4195702962756
436	11432581	175	6.4534651596693
436	11594813	176	10.92857585246
436	11754059	177	3.7205275636856
436	11914494	178	5.6624169949984
436	12073105	179	9.9597380916862
436	12234799	180	-2.2921568706188
437	11273536	174	33.154375242692
437	11432581	175	32.927807626064
437	11594813	176	32.189498037431
437	11754059	177	32.818042184907
437	11914494	178	32.296365313912
437	12073105	179	33.054689135559
437	12234799	180	33.106460964289
438	11432581	175	30.1
438	11594813	176	30.1
438	11754059	177	63.812044541828
438	11914494	178	98.116005949034
438	12073105	179	131.98328670957
438	12234799	180	165.54187677676
439	11432581	175	29.95
439	11594813	176	29.95
439	11754059	177	29.95
439	11914494	178	29.95
439	12073105	179	29.95
439	12234799	180	29.95
440	11432581	175	-0.22656761662802
440	11594813	176	-0.73830958863255
440	11754059	177	0.62854414747562
440	11914494	178	-0.52167687099427
440	12073105	179	0.75832382164663
440	12234799	180	0.051771828730125
441	11432581	175	4.1985667416154
441	11594813	176	0.016427438338318
441	11754059	177	10.929597999779
441	11914494	178	1.7195017343384
441	12073105	179	12.081854785949
441	12234799	180	6.4721790328054
442	11594813	176	33.712044541828
442	11754059	177	34.303961407206
442	11914494	178	33.867280760535
442	12073105	179	33.558590067189
442	12234799	180	34.27616555615
443	11754059	177	30.1
443	11914494	178	30.1
443	12073105	179	60.645883305034
443	12234799	180	91.987676884387
444	11754059	177	29.95
444	11914494	178	29.95
444	12073105	179	29.95
444	12234799	180	29.95
445	11754059	177	0.59191686537815
445	11914494	178	-0.43668064667145
445	12073105	179	-0.30869069334585
445	12234799	180	0.7175754889613
446	11754059	177	11.387463363698
446	11914494	178	2.768069783473
446	12073105	179	3.7235663036307
446	12234799	180	12.41110989787
447	11914494	178	30.545883305034
447	12073105	179	31.341793579353
447	12234799	180	30.996704145231
448	12073105	179	30.1
448	12234799	180	30.1
449	12073105	179	26.65
449	12234799	180	26.65
450	12073105	179	0.79591027431889
450	12234799	180	-0.3450894341222
451	12073105	179	11.477830565968
451	12234799	180	2.7785734784876
452	12234799	180	33.025863560911

