version 2
run Scenario1Patched-0-20180428-21:00:24-2236
attr configname Scenario1Patched
attr datetime 20180428-21:00:24
attr experiment Scenario1Patched
attr inifile omnetpp.ini
attr iterationvars ""
attr iterationvarsf ""
attr measurement ""
attr network HighwayScenario1
attr processid 2236
attr repetition 0
attr replication #0
attr resultdir results
attr runnumber 0
attr seedset 0
param *.ambulanceNode[*].applType "\"AmbulanceAppLayer_Secure\""
param *.ambulanceNode[*].appl.messageLength 158
param *.ambulanceNode[*].appl.messageValidity 300
param *.attackerNode[*].applType "\"AttackerAppLayer\""
param *.node[*].applType "\"NormalAppLayer_Secure\""
param *.node[*].appl.headerLength "80 bit"
param *.node[*].appl.sendBeacons false
param *.node[*].appl.dataOnSch false
param **.debug false
param **.coreDebug false
param *.playgroundSizeX 5500m
param *.playgroundSizeY 500m
param *.playgroundSizeZ 50m
param *.annotations.draw false
param *.obstacles.debug false
param *.manager.updateInterval 1s
param *.manager.host "\"localhost\""
param *.manager.port 9999
param *.manager.autoShutdown true
param *.manager.launchConfig "xmldoc(\"highway.launchd.xml\")"
param *.connectionManager.sendDirect true
param *.connectionManager.maxInterfDist 2600m
param *.connectionManager.drawMaxIntfDist false
param *.**.nic.mac1609_4.useServiceChannel false
param *.**.nic.mac1609_4.txPower 20mW
param *.**.nic.mac1609_4.bitrate 6Mbps
param *.**.nic.phy80211p.sensitivity -89dBm
param *.**.nic.phy80211p.useThermalNoise true
param *.**.nic.phy80211p.thermalNoise -110dBm
param *.**.nic.phy80211p.decider "xmldoc(\"config.xml\")"
param *.**.nic.phy80211p.analogueModels "xmldoc(\"config.xml\")"
param *.**.nic.phy80211p.usePropagationDelay true
param *.**.nic.phy80211p.antenna "xmldoc(\"antenna.xml\", \"/root/Antenna[@id='monopole']\")"
param *.manager.moduleType "\"ambulance=org.car2x.veins.nodes.Car attacker=org.car2x.veins.nodes.Car *=org.car2x.veins.nodes.Car\""
param *.manager.moduleName "\"ambulance=ambulanceNode attacker=attackerNode *=node\""
param *.node[*].veinsmobilityType.debug true
param *.node[*].veinsmobility.x 0
param *.node[*].veinsmobility.y 0
param *.node[*].veinsmobility.z 1.895
param *.ambulanceNode[*].veinsmobilityType.debug true
param *.ambulanceNode[*].veinsmobility.x 0
param *.ambulanceNode[*].veinsmobility.y 0
param *.ambulanceNode[*].veinsmobility.z 1.895
param *.attackerNode[*].veinsmobilityType.debug true
param *.attackerNode[*].veinsmobility.x 0
param *.attackerNode[*].veinsmobility.y 0
param *.attackerNode[*].veinsmobility.z 1.895

vector 0 HighwayScenario1.node[0].veinsmobility posx ETV
vector 1 HighwayScenario1.node[0].veinsmobility posy ETV
vector 2 HighwayScenario1.node[0].veinsmobility speed ETV
vector 3 HighwayScenario1.node[1].veinsmobility posx ETV
vector 4 HighwayScenario1.node[1].veinsmobility posy ETV
vector 5 HighwayScenario1.node[0].veinsmobility acceleration ETV
vector 6 HighwayScenario1.node[0].veinsmobility co2emission ETV
vector 7 HighwayScenario1.node[2].veinsmobility posx ETV
vector 8 HighwayScenario1.node[2].veinsmobility posy ETV
vector 9 HighwayScenario1.node[1].veinsmobility speed ETV
vector 10 HighwayScenario1.node[3].veinsmobility posx ETV
vector 11 HighwayScenario1.node[3].veinsmobility posy ETV
vector 12 HighwayScenario1.node[1].veinsmobility acceleration ETV
vector 13 HighwayScenario1.node[1].veinsmobility co2emission ETV
vector 14 HighwayScenario1.node[2].veinsmobility speed ETV
vector 15 HighwayScenario1.node[2].veinsmobility acceleration ETV
vector 16 HighwayScenario1.node[2].veinsmobility co2emission ETV
vector 17 HighwayScenario1.node[3].veinsmobility speed ETV
vector 18 HighwayScenario1.node[4].veinsmobility posx ETV
vector 19 HighwayScenario1.node[4].veinsmobility posy ETV
vector 20 HighwayScenario1.node[3].veinsmobility acceleration ETV
vector 21 HighwayScenario1.node[3].veinsmobility co2emission ETV
vector 22 HighwayScenario1.node[4].veinsmobility speed ETV
vector 23 HighwayScenario1.node[5].veinsmobility posx ETV
vector 24 HighwayScenario1.node[5].veinsmobility posy ETV
vector 25 HighwayScenario1.node[4].veinsmobility acceleration ETV
vector 26 HighwayScenario1.node[4].veinsmobility co2emission ETV
vector 27 HighwayScenario1.node[6].veinsmobility posx ETV
vector 28 HighwayScenario1.node[6].veinsmobility posy ETV
vector 29 HighwayScenario1.node[5].veinsmobility speed ETV
vector 30 HighwayScenario1.node[5].veinsmobility acceleration ETV
vector 31 HighwayScenario1.node[5].veinsmobility co2emission ETV
vector 32 HighwayScenario1.node[6].veinsmobility speed ETV
vector 33 HighwayScenario1.node[7].veinsmobility posx ETV
vector 34 HighwayScenario1.node[7].veinsmobility posy ETV
vector 35 HighwayScenario1.node[6].veinsmobility acceleration ETV
vector 36 HighwayScenario1.node[6].veinsmobility co2emission ETV
vector 37 HighwayScenario1.ambulanceNode[8].veinsmobility posx ETV
vector 38 HighwayScenario1.ambulanceNode[8].veinsmobility posy ETV
vector 39 HighwayScenario1.node[7].veinsmobility speed ETV
vector 40 HighwayScenario1.node[9].veinsmobility posx ETV
vector 41 HighwayScenario1.node[9].veinsmobility posy ETV
vector 42 HighwayScenario1.node[7].veinsmobility acceleration ETV
vector 43 HighwayScenario1.node[7].veinsmobility co2emission ETV
vector 44 HighwayScenario1.ambulanceNode[8].veinsmobility speed ETV
vector 45 HighwayScenario1.node[10].veinsmobility posx ETV
vector 46 HighwayScenario1.node[10].veinsmobility posy ETV
vector 47 HighwayScenario1.ambulanceNode[8].veinsmobility acceleration ETV
vector 48 HighwayScenario1.ambulanceNode[8].veinsmobility co2emission ETV
vector 49 HighwayScenario1.node[9].veinsmobility speed ETV
vector 50 HighwayScenario1.attackerNode[11].veinsmobility posx ETV
vector 51 HighwayScenario1.attackerNode[11].veinsmobility posy ETV
vector 52 HighwayScenario1.node[9].veinsmobility acceleration ETV
vector 53 HighwayScenario1.node[9].veinsmobility co2emission ETV
vector 54 HighwayScenario1.node[10].veinsmobility speed ETV
vector 55 HighwayScenario1.node[12].veinsmobility posx ETV
vector 56 HighwayScenario1.node[12].veinsmobility posy ETV
vector 57 HighwayScenario1.node[10].veinsmobility acceleration ETV
vector 58 HighwayScenario1.node[10].veinsmobility co2emission ETV
vector 59 HighwayScenario1.attackerNode[11].veinsmobility speed ETV
vector 60 HighwayScenario1.node[13].veinsmobility posx ETV
vector 61 HighwayScenario1.node[13].veinsmobility posy ETV
vector 62 HighwayScenario1.attackerNode[11].veinsmobility acceleration ETV
vector 63 HighwayScenario1.attackerNode[11].veinsmobility co2emission ETV
vector 64 HighwayScenario1.node[12].veinsmobility speed ETV
vector 65 HighwayScenario1.node[12].veinsmobility acceleration ETV
vector 66 HighwayScenario1.node[12].veinsmobility co2emission ETV
vector 67 HighwayScenario1.node[13].veinsmobility speed ETV
vector 68 HighwayScenario1.node[13].veinsmobility acceleration ETV
vector 69 HighwayScenario1.node[13].veinsmobility co2emission ETV
vector 70 HighwayScenario1.node[14].veinsmobility posx ETV
vector 71 HighwayScenario1.node[14].veinsmobility posy ETV
vector 72 HighwayScenario1.node[14].veinsmobility speed ETV
vector 73 HighwayScenario1.node[14].veinsmobility acceleration ETV
vector 74 HighwayScenario1.node[14].veinsmobility co2emission ETV
vector 75 HighwayScenario1.node[15].veinsmobility posx ETV
vector 76 HighwayScenario1.node[15].veinsmobility posy ETV
vector 77 HighwayScenario1.node[16].veinsmobility posx ETV
vector 78 HighwayScenario1.node[16].veinsmobility posy ETV
vector 79 HighwayScenario1.node[15].veinsmobility speed ETV
vector 80 HighwayScenario1.node[17].veinsmobility posx ETV
vector 81 HighwayScenario1.node[17].veinsmobility posy ETV
vector 82 HighwayScenario1.node[15].veinsmobility acceleration ETV
vector 83 HighwayScenario1.node[15].veinsmobility co2emission ETV
vector 84 HighwayScenario1.node[16].veinsmobility speed ETV
vector 85 HighwayScenario1.node[18].veinsmobility posx ETV
vector 86 HighwayScenario1.node[18].veinsmobility posy ETV
vector 87 HighwayScenario1.node[16].veinsmobility acceleration ETV
vector 88 HighwayScenario1.node[16].veinsmobility co2emission ETV
vector 89 HighwayScenario1.node[17].veinsmobility speed ETV
vector 90 HighwayScenario1.node[19].veinsmobility posx ETV
vector 91 HighwayScenario1.node[19].veinsmobility posy ETV
vector 92 HighwayScenario1.node[17].veinsmobility acceleration ETV
vector 93 HighwayScenario1.node[17].veinsmobility co2emission ETV
vector 94 HighwayScenario1.node[18].veinsmobility speed ETV
vector 95 HighwayScenario1.node[20].veinsmobility posx ETV
vector 96 HighwayScenario1.node[20].veinsmobility posy ETV
vector 97 HighwayScenario1.node[18].veinsmobility acceleration ETV
vector 98 HighwayScenario1.node[18].veinsmobility co2emission ETV
vector 99 HighwayScenario1.node[19].veinsmobility speed ETV
vector 100 HighwayScenario1.node[21].veinsmobility posx ETV
vector 101 HighwayScenario1.node[21].veinsmobility posy ETV
vector 102 HighwayScenario1.node[19].veinsmobility acceleration ETV
vector 103 HighwayScenario1.node[19].veinsmobility co2emission ETV
vector 104 HighwayScenario1.node[20].veinsmobility speed ETV
vector 105 HighwayScenario1.node[22].veinsmobility posx ETV
vector 106 HighwayScenario1.node[22].veinsmobility posy ETV
vector 107 HighwayScenario1.node[20].veinsmobility acceleration ETV
vector 108 HighwayScenario1.node[20].veinsmobility co2emission ETV
vector 109 HighwayScenario1.node[21].veinsmobility speed ETV
vector 110 HighwayScenario1.node[23].veinsmobility posx ETV
vector 111 HighwayScenario1.node[23].veinsmobility posy ETV
vector 112 HighwayScenario1.node[21].veinsmobility acceleration ETV
vector 113 HighwayScenario1.node[21].veinsmobility co2emission ETV
vector 114 HighwayScenario1.node[22].veinsmobility speed ETV
vector 115 HighwayScenario1.node[22].veinsmobility acceleration ETV
vector 116 HighwayScenario1.node[22].veinsmobility co2emission ETV
vector 117 HighwayScenario1.node[23].veinsmobility speed ETV
vector 118 HighwayScenario1.node[24].veinsmobility posx ETV
vector 119 HighwayScenario1.node[24].veinsmobility posy ETV
vector 120 HighwayScenario1.node[23].veinsmobility acceleration ETV
vector 121 HighwayScenario1.node[23].veinsmobility co2emission ETV
vector 122 HighwayScenario1.node[25].veinsmobility posx ETV
vector 123 HighwayScenario1.node[25].veinsmobility posy ETV
vector 124 HighwayScenario1.node[24].veinsmobility speed ETV
vector 125 HighwayScenario1.node[24].veinsmobility acceleration ETV
vector 126 HighwayScenario1.node[24].veinsmobility co2emission ETV
vector 127 HighwayScenario1.node[25].veinsmobility speed ETV
vector 128 HighwayScenario1.node[25].veinsmobility acceleration ETV
vector 129 HighwayScenario1.node[25].veinsmobility co2emission ETV
vector 130 HighwayScenario1.node[26].veinsmobility posx ETV
vector 131 HighwayScenario1.node[26].veinsmobility posy ETV
vector 132 HighwayScenario1.node[27].veinsmobility posx ETV
vector 133 HighwayScenario1.node[27].veinsmobility posy ETV
vector 134 HighwayScenario1.node[26].veinsmobility speed ETV
vector 135 HighwayScenario1.node[28].veinsmobility posx ETV
vector 136 HighwayScenario1.node[28].veinsmobility posy ETV
vector 137 HighwayScenario1.node[26].veinsmobility acceleration ETV
vector 138 HighwayScenario1.node[26].veinsmobility co2emission ETV
vector 139 HighwayScenario1.node[27].veinsmobility speed ETV
vector 140 HighwayScenario1.node[29].veinsmobility posx ETV
vector 141 HighwayScenario1.node[29].veinsmobility posy ETV
vector 142 HighwayScenario1.node[27].veinsmobility acceleration ETV
vector 143 HighwayScenario1.node[27].veinsmobility co2emission ETV
vector 144 HighwayScenario1.node[28].veinsmobility speed ETV
vector 145 HighwayScenario1.node[28].veinsmobility acceleration ETV
vector 146 HighwayScenario1.node[28].veinsmobility co2emission ETV
vector 147 HighwayScenario1.node[29].veinsmobility speed ETV
vector 148 HighwayScenario1.node[30].veinsmobility posx ETV
vector 149 HighwayScenario1.node[30].veinsmobility posy ETV
vector 150 HighwayScenario1.node[29].veinsmobility acceleration ETV
vector 151 HighwayScenario1.node[29].veinsmobility co2emission ETV
vector 152 HighwayScenario1.node[30].veinsmobility speed ETV
vector 153 HighwayScenario1.node[30].veinsmobility acceleration ETV
vector 154 HighwayScenario1.node[30].veinsmobility co2emission ETV
vector 155 HighwayScenario1.node[31].veinsmobility posx ETV
vector 156 HighwayScenario1.node[31].veinsmobility posy ETV
vector 157 HighwayScenario1.node[32].veinsmobility posx ETV
vector 158 HighwayScenario1.node[32].veinsmobility posy ETV
vector 159 HighwayScenario1.node[31].veinsmobility speed ETV
vector 160 HighwayScenario1.node[33].veinsmobility posx ETV
vector 161 HighwayScenario1.node[33].veinsmobility posy ETV
vector 162 HighwayScenario1.node[31].veinsmobility acceleration ETV
vector 163 HighwayScenario1.node[31].veinsmobility co2emission ETV
vector 164 HighwayScenario1.node[32].veinsmobility speed ETV
vector 165 HighwayScenario1.node[34].veinsmobility posx ETV
vector 166 HighwayScenario1.node[34].veinsmobility posy ETV
vector 167 HighwayScenario1.node[32].veinsmobility acceleration ETV
vector 168 HighwayScenario1.node[32].veinsmobility co2emission ETV
vector 169 HighwayScenario1.node[33].veinsmobility speed ETV
vector 170 HighwayScenario1.node[35].veinsmobility posx ETV
vector 171 HighwayScenario1.node[35].veinsmobility posy ETV
vector 172 HighwayScenario1.node[33].veinsmobility acceleration ETV
vector 173 HighwayScenario1.node[33].veinsmobility co2emission ETV
vector 174 HighwayScenario1.node[34].veinsmobility speed ETV
vector 175 HighwayScenario1.node[34].veinsmobility acceleration ETV
vector 176 HighwayScenario1.node[34].veinsmobility co2emission ETV
vector 177 HighwayScenario1.node[35].veinsmobility speed ETV
vector 178 HighwayScenario1.node[35].veinsmobility acceleration ETV
vector 179 HighwayScenario1.node[35].veinsmobility co2emission ETV
vector 180 HighwayScenario1.node[36].veinsmobility posx ETV
vector 181 HighwayScenario1.node[36].veinsmobility posy ETV
vector 182 HighwayScenario1.node[37].veinsmobility posx ETV
vector 183 HighwayScenario1.node[37].veinsmobility posy ETV
vector 184 HighwayScenario1.node[36].veinsmobility speed ETV
0	10	9	30.1
0	11	10	30.1
0	12	11	63.417017082407
0	13	12	97.033011650032
0	14	13	130.01476710074
0	15	14	163.7704184355
0	16	15	197.20577148649
0	17	16	230.25714472836
0	18	17	264.32834343236
0	19	18	298.24937666348
0	20	19	331.76899916289
0	21	20	365.68627925892
0	22	21	399.19075043341
0	76	22	433.26373488879
0	136	23	466.50793121938
0	202	24	499.39214158654
0	341	25	533.03397482268
0	488	26	565.88632206858
0	647	27	599.58629159052
0	806	28	632.4621889619
0	965	29	666.10935507858
0	1120	30	699.1244485765
0	1279	31	733.0561729519
0	1450	32	766.96959245072
0	1617	33	800.35074927675
0	1780	34	833.93244580237
0	1943	35	867.74075122636
0	2094	36	900.90076063419
0	2237	37	934.59598578241
0	2384	38	968.56799612929
0	2535	39	1001.5833012161
0	2694	40	1035.6589879572
0	2853	41	1068.763337532
0	3020	42	1101.6920417328
0	3199	43	1135.223377138
0	3386	44	1169.2357868024
0	3581	45	1202.2017272837
0	3784	46	1235.1139857434
0	3987	47	1268.2766081077
0	4198	48	1301.4372502799
0	4417	49	1334.3033101905
0	4632	50	1367.306921931
0	4847	51	1401.0310913567
0	5066	52	1434.9619535183
0	5289	53	1468.9377382033
0	5516	54	1502.7759666491
0	5735	55	1536.3542290045
0	5950	56	1569.3481489387
0	6169	57	1602.252468915
0	6384	58	1635.1502122161
0	6607	59	1668.7106892702
0	6834	60	1702.7255307153
0	7069	61	1735.8986490955
0	7308	62	1769.6545746762
0	7551	63	1803.5862313349
0	7798	64	1837.3431370756
0	8045	65	1870.7769976143
0	8292	66	1904.0956804905
0	8535	67	1930.7524924816
0	8782	68	1949.7314988496
1	10	9	29.95
1	11	10	29.95
1	12	11	29.95
1	13	12	29.95
1	14	13	29.95
1	15	14	29.95
1	16	15	29.95
1	17	16	29.95
1	18	17	29.95
1	19	18	29.95
1	20	19	29.95
1	21	20	29.95
1	22	21	29.95
1	76	22	29.95
1	136	23	29.95
1	202	24	29.95
1	341	25	29.95
1	488	26	29.95
1	647	27	29.95
1	806	28	29.95
1	965	29	29.95
1	1120	30	29.95
1	1279	31	29.95
1	1450	32	29.95
1	1617	33	29.95
1	1780	34	29.95
1	1943	35	29.95
1	2094	36	29.95
1	2237	37	29.95
1	2384	38	29.95
1	2535	39	29.95
1	2694	40	29.95
1	2853	41	29.95
1	3020	42	29.95
1	3199	43	29.95
1	3386	44	29.95
1	3581	45	29.95
1	3784	46	29.95
1	3987	47	29.95
1	4198	48	29.95
1	4417	49	29.95
1	4632	50	29.95
1	4847	51	29.95
1	5066	52	29.95
1	5289	53	29.95
1	5516	54	29.95
1	5735	55	29.95
1	5950	56	29.95
1	6169	57	29.95
1	6384	58	29.95
1	6607	59	29.95
1	6834	60	29.95
1	7069	61	29.95
1	7308	62	29.95
1	7551	63	29.95
1	7798	64	29.95
1	8045	65	29.95
1	8292	66	29.95
1	8535	67	29.95
1	8782	68	29.95
2	11	10	33.317017082407
2	12	11	33.615994567625
2	13	12	32.981755450709
2	14	13	33.755651334758
2	15	14	33.435353050989
2	16	15	33.051373241868
2	17	16	34.071198704004
2	18	17	33.921033231125
2	19	18	33.519622499406
2	20	19	33.917280096028
2	21	20	33.504471174491
2	22	21	34.072984455378
2	76	22	33.244196330596
2	136	23	32.884210367155
2	202	24	33.641833236141
2	341	25	32.852347245897
2	488	26	33.699969521948
2	647	27	32.875897371376
2	806	28	33.647166116678
2	965	29	33.015093497923
2	1120	30	33.931724375396
2	1279	31	33.913419498821
2	1450	32	33.381156826034
2	1617	33	33.581696525615
2	1780	34	33.808305423989
2	1943	35	33.160009407837
2	2094	36	33.69522514822
2	2237	37	33.972010346878
2	2384	38	33.015305086845
2	2535	39	34.075686741088
2	2694	40	33.104349574822
2	2853	41	32.928704200711
2	3020	42	33.53133540524
2	3199	43	34.012409664391
2	3386	44	32.965940481334
2	3581	45	32.912258459654
2	3784	46	33.162622364287
2	3987	47	33.160642172259
2	4198	48	32.866059910556
2	4417	49	33.003611740531
2	4632	50	33.724169425658
2	4847	51	33.930862161613
2	5066	52	33.975784684988
2	5289	53	33.838228445783
2	5516	54	33.578262355403
2	5735	55	32.993919934196
2	5950	56	32.904319976331
2	6169	57	32.897743301108
2	6384	58	33.560477054087
2	6607	59	34.014841445131
2	6834	60	33.173118380181
2	7069	61	33.755925580734
2	7308	62	33.931656658641
2	7551	63	33.7569057407
2	7798	64	33.433860538752
2	8045	65	33.318682876232
2	8292	66	26.65681199109
2	8535	67	18.979006367973
2	8782	68	12.147528267645
3	12	11	30.1
3	13	12	30.1
3	14	13	63.766398097449
3	15	14	96.600135996396
3	16	15	129.64879605863
3	17	16	163.19613142119
3	18	17	197.125536154
3	19	18	230.19115656191
3	20	19	263.23052471113
3	21	20	296.36805025066
3	22	21	330.07567209041
3	76	22	363.70881218928
3	136	23	397.18469105635
3	202	24	430.38954902127
3	341	25	464.02155634084
3	488	26	497.24348729228
3	647	27	531.10907495942
3	806	28	564.04964947774
3	965	29	597.71779058265
3	1120	30	631.42437007278
3	1279	31	664.65371875358
3	1450	32	697.84476443347
3	1617	33	731.08442943729
3	1780	34	764.62711361776
3	1943	35	797.86044222613
3	2094	36	831.3627977069
3	2237	37	864.86184101782
3	2384	38	897.75080410561
3	2535	39	930.77997175923
3	2694	40	963.7485339345
3	2853	41	997.20753656829
3	3020	42	1030.9117747548
3	3199	43	1064.3370176065
3	3386	44	1097.4455407826
3	3581	45	1131.0045272726
3	3784	46	1164.7560413403
3	3987	47	1198.6474428725
3	4198	48	1232.5700140283
3	4417	49	1266.256167752
3	4632	50	1299.6718088204
3	4847	51	1333.4728152822
3	5066	52	1367.1044937497
3	5289	53	1400.8049002243
3	5516	54	1433.8698473323
3	5735	55	1466.7088720063
3	5950	56	1500.6434736795
3	6169	57	1533.6096367291
3	6384	58	1567.4982388977
3	6607	59	1600.724265284
3	6834	60	1634.3716400221
3	7069	61	1668.1191726378
3	7308	62	1701.9914702417
3	7551	63	1728.1951339294
3	7798	64	1747.7148711346
3	8045	65	1759.2346083398
3	8292	66	1763.7674894478
3	8535	67	1763.7776116258
3	8782	68	1763.7776116258
4	12	11	26.65
4	13	12	26.65
4	14	13	26.65
4	15	14	26.65
4	16	15	26.65
4	17	16	26.65
4	18	17	26.65
4	19	18	26.65
4	20	19	26.65
4	21	20	29.95
4	22	21	29.95
4	76	22	29.95
4	136	23	29.95
4	202	24	29.95
4	341	25	29.95
4	488	26	29.95
4	647	27	29.95
4	806	28	29.95
4	965	29	29.95
4	1120	30	29.95
4	1279	31	29.95
4	1450	32	29.95
4	1617	33	29.95
4	1780	34	29.95
4	1943	35	29.95
4	2094	36	29.95
4	2237	37	29.95
4	2384	38	29.95
4	2535	39	29.95
4	2694	40	29.95
4	2853	41	29.95
4	3020	42	29.95
4	3199	43	29.95
4	3386	44	29.95
4	3581	45	29.95
4	3784	46	29.95
4	3987	47	29.95
4	4198	48	29.95
4	4417	49	29.95
4	4632	50	29.95
4	4847	51	29.95
4	5066	52	29.95
4	5289	53	29.95
4	5516	54	29.95
4	5735	55	29.95
4	5950	56	29.95
4	6169	57	29.95
4	6384	58	29.95
4	6607	59	29.95
4	6834	60	29.95
4	7069	61	29.95
4	7308	62	29.95
4	7551	63	29.95
4	7798	64	29.95
4	8045	65	29.95
4	8292	66	29.95
4	8535	67	29.95
4	8782	68	29.95
5	12	11	0.29897748521762
5	13	12	-0.63423911691643
5	14	13	0.77389588404913
5	15	14	-0.32029828376835
5	16	15	-0.38397980912123
5	17	16	1.0198254621355
5	18	17	-0.15016547287814
5	19	18	-0.40141073171981
5	20	19	0.39765759662259
5	21	20	-0.41280892153736
5	22	21	0.56851328088669
5	76	22	-0.82878812478157
5	136	23	-0.35998596344143
5	202	24	0.7576228689868
5	341	25	-0.78948599024443
5	488	26	0.84762227605097
5	647	27	-0.82407215057174
5	806	28	0.77126874530222
5	965	29	-0.63207261875505
5	1120	30	0.91663087747293
5	1279	31	-0.018304876575712
5	1450	32	-0.5322626727866
5	1617	33	0.20053969958099
5	1780	34	0.22660889837425
5	1943	35	-0.64829601615202
5	2094	36	0.53521574038314
5	2237	37	0.27678519865731
5	2384	38	-0.95670526003232
5	2535	39	1.0603816542425
5	2694	40	-0.97133716626558
5	2853	41	-0.1756453741109
5	3020	42	0.60263120452873
5	3199	43	0.48107425915077
5	3386	44	-1.0464691830566
5	3581	45	-0.053682021680288
5	3784	46	0.25036390463356
5	3987	47	-0.001980192027986
5	4198	48	-0.29458226170391
5	4417	49	0.13755182997556
5	4632	50	0.72055768512655
5	4847	51	0.20669273595558
5	5066	52	0.044922523375135
5	5289	53	-0.13755623920588
5	5516	54	-0.25996609037975
5	5735	55	-0.58434242120711
5	5950	56	-0.089599957864266
5	6169	57	-0.0065766752231866
5	6384	58	0.66273375297897
5	6607	59	0.45436439104378
5	6834	60	-0.8417230649502
5	7069	61	0.58280720055336
5	7308	62	0.17573107790668
5	7551	63	-0.1747509179404
5	7798	64	-0.32304520194884
5	8045	65	-0.11517766251927
5	8292	66	-6.661870885142
5	8535	67	-7.6778056231172
5	8782	68	-6.8314781003283
6	12	11	8.6630080580735
6	13	12	0.97404151152412
6	14	13	12.587241063279
6	15	14	3.5949345942081
6	16	15	2.9812012848545
6	17	16	14.78126075708
6	18	17	5.1243721871564
6	19	18	2.9634239005847
6	20	19	9.6010713872707
6	21	20	2.8674074686645
6	22	21	11.076370072145
6	76	22	-0.53236178521763
6	136	23	3.1284082211643
6	202	24	12.392765342972
6	341	25	-0.28043450170242
6	488	26	13.155398607141
6	647	27	-0.55075947858388
6	806	28	12.506323231392
6	965	29	0.9978525275779
6	1120	30	13.851687094887
6	1279	31	6.1995674278034
6	1450	32	1.8745163677614
6	1617	33	7.8514763297027
6	1780	34	8.1570689181431
6	1943	35	0.89708634215333
6	2094	36	10.615794872517
6	2237	37	8.6368204760568
6	2384	38	-1.5851063918454
6	2535	39	15.117081574634
6	2694	40	-1.6911056982509
6	2853	41	4.6029400835874
6	3020	42	11.080219205371
6	3199	43	10.328956518901
6	3386	44	-2.3041514728992
6	3581	45	5.5652989748771
6	3784	46	8.079863088712
6	3987	47	6.0623825471039
6	4198	48	3.6417152873278
6	4417	49	7.1170736229865
6	4632	50	12.136411041995
6	4847	51	8.0457759328434
6	5066	52	6.7399320108659
6	5289	53	5.1998621673677
6	5516	54	4.123492301868
6	5735	55	1.3731928301088
6	5950	56	5.2778090562256
6	6169	57	5.9338989987856
6	6384	58	11.581059672134
6	6607	59	10.111179265208
6	6834	60	-0.6467284592396
6	7069	61	11.032851578346
6	7308	62	7.7929174759478
6	7551	63	4.8702969239317
6	7798	64	3.5723819605406
6	8045	65	5.2093700441772
6	8292	66	0.973
6	8535	67	0.973
6	8782	68	0.973
7	13	12	30.1
7	14	13	30.1
7	15	14	63.419453552218
7	16	15	94.673112062209
7	17	16	128.33797549881
7	18	17	160.64727497334
7	19	18	193.35851524564
7	20	19	226.5066738489
7	21	20	258.78273854072
7	22	21	291.07670588366
7	76	22	323.57035222075
7	136	23	356.55497141597
7	202	24	389.14499339745
7	341	25	421.74484492421
7	488	26	454.81628746282
7	647	27	487.40614033771
7	806	28	520.61908179368
7	965	29	553.55633802486
7	1120	30	586.71888227753
7	1279	31	619.62222873408
7	1450	32	652.70896118248
7	1617	33	686.22886459803
7	1780	34	719.1833212054
7	1943	35	752.48849004408
7	2094	36	785.18918025904
7	2237	37	818.71135735954
7	2384	38	852.06972323773
7	2535	39	885.3542327861
7	2694	40	918.86456031296
7	2853	41	952.38340991344
7	3020	42	985.41470792664
7	3199	43	1018.0006675244
7	3386	44	1050.9501820086
7	3581	45	1083.9417067128
7	3784	46	1116.8268924135
7	3987	47	1149.782088686
7	4198	48	1182.4511944655
7	4417	49	1215.3705814376
7	4632	50	1248.8030615365
7	4847	51	1282.1004015635
7	5066	52	1315.8323730455
7	5289	53	1349.3109540207
7	5516	54	1382.0506153286
7	5735	55	1415.6317308465
7	5950	56	1448.8572313547
7	6169	57	1481.9587226841
7	6384	58	1515.313267076
7	6607	59	1542.4195076154
7	6834	60	1561.5257481547
7	7069	61	1572.6319886941
7	7308	62	1575.7382292334
7	7551	63	1575.9581225463
7	7798	64	1576.0511643267
7	8045	65	1576.0656404537
7	8292	66	1576.0656404537
7	8535	67	1576.0656404537
7	8782	68	1576.0656404537
8	13	12	29.95
8	14	13	29.95
8	15	14	29.95
8	16	15	29.95
8	17	16	29.95
8	18	17	29.95
8	19	18	29.95
8	20	19	29.95
8	21	20	29.95
8	22	21	29.95
8	76	22	29.95
8	136	23	29.95
8	202	24	29.95
8	341	25	29.95
8	488	26	29.95
8	647	27	29.95
8	806	28	29.95
8	965	29	29.95
8	1120	30	29.95
8	1279	31	29.95
8	1450	32	29.95
8	1617	33	29.95
8	1780	34	29.95
8	1943	35	29.95
8	2094	36	29.95
8	2237	37	29.95
8	2384	38	29.95
8	2535	39	29.95
8	2694	40	29.95
8	2853	41	29.95
8	3020	42	29.95
8	3199	43	29.95
8	3386	44	29.95
8	3581	45	29.95
8	3784	46	29.95
8	3987	47	29.95
8	4198	48	29.95
8	4417	49	29.95
8	4632	50	29.95
8	4847	51	29.95
8	5066	52	29.95
8	5289	53	29.95
8	5516	54	29.95
8	5735	55	29.95
8	5950	56	29.95
8	6169	57	29.95
8	6384	58	29.95
8	6607	59	29.95
8	6834	60	29.95
8	7069	61	29.95
8	7308	62	29.95
8	7551	63	29.95
8	7798	64	29.95
8	8045	65	29.95
8	8292	66	29.95
8	8535	67	29.95
8	8782	68	29.95
9	13	12	33.666398097449
9	14	13	32.833737898947
9	15	14	33.048660062233
9	16	15	33.547335362565
9	17	16	33.929404732809
9	18	17	33.065620407907
9	19	18	33.039368149222
9	20	19	33.137525539533
9	21	20	33.70762183975
9	22	21	33.633140098865
9	76	22	33.475878867067
9	136	23	33.204857964921
9	202	24	33.632007319576
9	341	25	33.221930951441
9	488	26	33.865587667134
9	647	27	32.940574518326
9	806	28	33.668141104901
9	965	29	33.706579490137
9	1120	30	33.229348680799
9	1279	31	33.191045679888
9	1450	32	33.239665003822
9	1617	33	33.542684180467
9	1780	34	33.233328608368
9	1943	35	33.502355480779
9	2094	36	33.499043310914
9	2237	37	32.88896308779
9	2384	38	33.029167653623
9	2535	39	32.968562175266
9	2694	40	33.459002633791
9	2853	41	33.704238186511
9	3020	42	33.4252428517
9	3199	43	33.108523176089
9	3386	44	33.55898648999
9	3581	45	33.751514067736
9	3784	46	33.891401532202
9	3987	47	33.922571155746
9	4198	48	33.686153723721
9	4417	49	33.41564106846
9	4632	50	33.801006461764
9	4847	51	33.631678467538
9	5066	52	33.700406474564
9	5289	53	33.064947107961
9	5516	54	32.839024674068
9	5735	55	33.934601673137
9	5950	56	32.966163049606
9	6169	57	33.888602168628
9	6384	58	33.226026386293
9	6607	59	33.647374738104
9	6834	60	33.747532615708
9	7069	61	33.872297603849
9	7308	62	26.203663687738
9	7551	63	19.519737205208
9	7798	64	11.519737205208
9	8045	65	4.5328811080273
9	8292	66	0.010122177932348
9	8535	67	0
9	8782	68	0
10	14	13	30.1
10	15	14	30.1
10	16	15	60.231478162654
10	17	16	90.221171441854
10	18	17	120.55764566689
10	19	18	150.61672567379
10	20	19	180.78775327496
10	21	20	210.75360619743
10	22	21	240.93250316003
10	76	22	271.89209865103
10	136	23	302.27245839446
10	202	24	332.58085012307
10	341	25	363.67950741189
10	488	26	394.50958198098
10	647	27	425.41054310584
10	806	28	455.92020171186
10	965	29	486.91848113973
10	1120	30	517.41111014431
10	1279	31	547.50606656234
10	1450	32	578.31524567227
10	1617	33	608.34749170447
10	1780	34	638.39280177416
10	1943	35	669.00967203995
10	2094	36	699.98701852497
10	2237	37	730.01302434784
10	2384	38	760.2669117956
10	2535	39	790.70222493592
10	2694	40	821.83427140477
10	2853	41	851.88774427293
10	3020	42	882.18557007097
10	3199	43	913.04799085522
10	3386	44	943.59643451792
10	3581	45	974.00772719188
10	3784	46	1004.054044257
10	3987	47	1034.5540094388
10	4198	48	1065.4288853915
10	4417	49	1095.8425617498
10	4632	50	1125.9335632233
10	4847	51	1156.4411035661
10	5066	52	1180.4067943256
10	5289	53	1197.7962493755
10	5516	54	1207.1857044255
10	5735	55	1208.5751594755
10	5950	56	1208.8709024645
10	6169	57	1209.0231108664
10	6384	58	1209.0582084774
10	6607	59	1209.0582084774
10	6834	60	1209.0582084774
10	7069	61	1209.0582084774
10	7308	62	1211.0904027488
10	7551	63	1215.0578199183
10	7798	64	1220.3126432434
10	8045	65	1227.1793060708
10	8292	66	1233.8741959819
10	8535	67	1234.8176058253
10	8782	68	1235.0697380706
11	14	13	26.65
11	15	14	26.65
11	16	15	26.65
11	17	16	26.65
11	18	17	29.95
11	19	18	29.95
11	20	19	29.95
11	21	20	29.95
11	22	21	29.95
11	76	22	29.95
11	136	23	29.95
11	202	24	29.95
11	341	25	29.95
11	488	26	29.95
11	647	27	29.95
11	806	28	29.95
11	965	29	29.95
11	1120	30	29.95
11	1279	31	29.95
11	1450	32	29.95
11	1617	33	29.95
11	1780	34	29.95
11	1943	35	29.95
11	2094	36	29.95
11	2237	37	29.95
11	2384	38	29.95
11	2535	39	29.95
11	2694	40	29.95
11	2853	41	29.95
11	3020	42	29.95
11	3199	43	29.95
11	3386	44	29.95
11	3581	45	29.95
11	3784	46	29.95
11	3987	47	29.95
11	4198	48	29.95
11	4417	49	29.95
11	4632	50	29.95
11	4847	51	29.95
11	5066	52	29.95
11	5289	53	29.95
11	5516	54	29.95
11	5735	55	29.95
11	5950	56	29.95
11	6169	57	29.95
11	6384	58	29.95
11	6607	59	29.95
11	6834	60	29.95
11	7069	61	29.95
11	7308	62	29.95
11	7551	63	29.95
11	7798	64	29.95
11	8045	65	29.95
11	8292	66	29.95
11	8535	67	29.95
11	8782	68	29.95
12	14	13	-0.83266019850271
12	15	14	0.21492216328625
12	16	15	0.49867530033225
12	17	16	0.3820693702437
12	18	17	-0.86378432490164
12	19	18	-0.026252258685417
12	20	19	0.098157390311826
12	21	20	0.57009630021639
12	22	21	-0.074481740884949
12	76	22	-0.15726123179775
12	136	23	-0.27102090214612
12	202	24	0.42714935465483
12	341	25	-0.41007636813447
12	488	26	0.64365671569249
12	647	27	-0.92501314880792
12	806	28	0.72756658657454
12	965	29	0.038438385236077
12	1120	30	-0.47723080933793
12	1279	31	-0.038303000910673
12	1450	32	0.048619323933963
12	1617	33	0.30301917664474
12	1780	34	-0.30935557209887
12	1943	35	0.2690268724109
12	2094	36	-0.0033121698652394
12	2237	37	-0.61008022312308
12	2384	38	0.14020456583239
12	2535	39	-0.060605478356592
12	2694	40	0.49044045852497
12	2853	41	0.24523555272026
12	3020	42	-0.27899533481104
12	3199	43	-0.31671967561124
12	3386	44	0.4504633139004
12	3581	45	0.19252757774666
12	3784	46	0.13988746446557
12	3987	47	0.031169623543974
12	4198	48	-0.23641743202461
12	4417	49	-0.27051265526097
12	4632	50	0.3853653933038
12	4847	51	-0.16932799422648
12	5066	52	0.068728007026948
12	5289	53	-0.63545936660375
12	5516	54	-0.22592243389226
12	5735	55	1.0955769990687
12	5950	56	-0.96843862353126
12	6169	57	0.92243911902187
12	6384	58	-0.6625757823349
12	6607	59	0.42134835181059
12	6834	60	0.10015787760494
12	7069	61	0.12476498814067
12	7308	62	-7.6686339161114
12	7551	63	-6.6839264825297
12	7798	64	-8
12	8045	65	-6.9868560971807
12	8292	66	-4.522758930095
12	8535	67	-0.010122177932348
12	8782	68	0
13	14	13	-0.62498904788186
13	15	14	7.7505909047172
13	16	15	10.247828825346
13	17	16	9.4792204063197
13	18	17	-0.83858796562536
13	19	18	5.8265012007196
13	20	19	6.8539517297321
13	21	20	10.905247495119
13	22	21	5.643336671324
13	76	22	4.9216639950414
13	136	23	3.9250235180966
13	202	24	9.7088246755106
13	341	25	2.8166059395439
13	488	26	11.584916703798
13	647	27	-1.3424112737702
13	806	28	12.163218644166
13	965	29	6.5859166764118
13	1120	30	2.2807089910468
13	1279	31	5.7825609121339
13	1450	32	6.4956368633078
13	1617	33	8.6639525780112
13	1780	34	3.6262130446906
13	1943	35	8.3720460823219
13	2094	36	6.171974907568
13	2237	37	1.1473425488726
13	2384	38	7.1479899580908
13	2535	39	5.529208102737
13	2694	40	10.139070970721
13	2853	41	8.2648006797618
13	3020	42	3.9248111601242
13	3199	43	3.5326801922618
13	3386	44	9.8635014791803
13	3581	45	7.8560469342938
13	3784	46	7.4836767487893
13	3987	47	6.6073571638552
13	4198	48	4.3469353635498
13	4417	49	3.990333883229
13	4632	50	9.4472437881682
13	4847	51	4.874083080604
13	5066	52	6.8296245881617
13	5289	53	0.98075790203406
13	5516	54	4.1776318764766
13	5735	55	15.316843844227
13	5950	56	-1.6841891106368
13	6169	57	13.873775483582
13	6384	58	0.79576952285322
13	6607	59	9.6689270008149
13	6834	60	7.1031561980609
13	7069	61	7.352585107044
13	7308	62	0.973
13	7551	63	0.973
13	7798	64	0.973
13	8045	65	0.973
13	8292	66	0.973
13	8535	67	0.973
13	8782	68	0.973
14	14	13	33.319453552218
14	15	14	31.253658509991
14	16	15	33.664863436602
14	17	16	32.309299474528
14	18	17	32.711240272298
14	19	18	33.148158603259
14	20	19	32.276064691824
14	21	20	32.293967342937
14	22	21	32.493646337089
14	76	22	32.984619195224
14	136	23	32.590021981481
14	202	24	32.59985152676
14	341	25	33.071442538609
14	488	26	32.589852874889
14	647	27	33.212941455973
14	806	28	32.937256231176
14	965	29	33.162544252669
14	1120	30	32.903346456556
14	1279	31	33.086732448397
14	1450	32	33.51990341555
14	1617	33	32.954456607373
14	1780	34	33.305168838675
14	1943	35	32.700690214957
14	2094	36	33.5221771005
14	2237	37	33.358365878199
14	2384	38	33.284509548363
14	2535	39	33.510327526861
14	2694	40	33.518849600483
14	2853	41	33.031298013199
14	3020	42	32.585959597751
14	3199	43	32.949514484177
14	3386	44	32.991524704235
14	3581	45	32.885185700694
14	3784	46	32.955196272493
14	3987	47	32.669105779465
14	4198	48	32.919386972177
14	4417	49	33.432480098823
14	4632	50	33.297340027026
14	4847	51	33.731971482017
14	5066	52	33.478580975176
14	5289	53	32.739661307975
14	5516	54	33.581115517851
14	5735	55	33.225500508239
14	5950	56	33.101491329404
14	6169	57	33.354544391883
14	6384	58	27.106240539343
14	6607	59	19.106240539343
14	6834	60	11.106240539343
14	7069	61	3.1062405393425
14	7308	62	0.21989331294482
14	7551	63	0.093041780357976
14	7798	64	0.014476126974114
14	8045	65	0
14	8292	66	0
14	8535	67	0
14	8782	68	1.9066650193417
15	15	14	-2.065795042227
15	16	15	2.4112049266114
15	17	16	-1.3555639620739
15	18	17	0.40194079776936
15	19	18	0.43691833096091
15	20	19	-0.87209391143448
15	21	20	0.017902651112323
15	22	21	0.19967899415207
15	76	22	0.49097285813536
15	136	23	-0.39459721374278
15	202	24	0.0098295452784782
15	341	25	0.47159101184892
15	488	26	-0.48158966371916
15	647	27	0.62308858108368
15	806	28	-0.27568522479731
15	965	29	0.22528802149344
15	1120	30	-0.25919779611286
15	1279	31	0.18338599184062
15	1450	32	0.43317096715327
15	1617	33	-0.56544680817751
15	1780	34	0.35071223130217
15	1943	35	-0.60447862371802
15	2094	36	0.82148688554298
15	2237	37	-0.16381122230086
15	2384	38	-0.073856329836417
15	2535	39	0.22581797849853
15	2694	40	0.0085220736218616
15	2853	41	-0.48755158728454
15	3020	42	-0.44533841544762
15	3199	43	0.36355488642585
15	3386	44	0.042010220058728
15	3581	45	-0.10633900354151
15	3784	46	0.070010571798775
15	3987	47	-0.28609049302759
15	4198	48	0.25028119271155
15	4417	49	0.51309312664671
15	4632	50	-0.13514007179765
15	4847	51	0.43463145499118
15	5066	52	-0.25339050684124
15	5289	53	-0.73891966720112
15	5516	54	0.84145420987625
15	5735	55	-0.35561500961194
15	5950	56	-0.12400917883497
15	6169	57	0.25305306247901
15	6384	58	-6.2483038525404
15	6607	59	-8
15	6834	60	-8
15	7069	61	-8
15	7308	62	-2.8863472263977
15	7551	63	-0.12685153258684
15	7798	64	-0.078565653383862
15	8045	65	-0.014476126974114
15	8292	66	0
15	8535	67	0
15	8782	68	1.9066650193417
16	15	14	0.973
16	16	15	25.821204849023
16	17	16	0.973
16	18	17	9.090085848345
16	19	18	9.5642147577799
16	20	19	-1.0105198976403
16	21	20	5.9184588071214
16	22	21	7.4105076899219
16	76	22	9.9192452645146
16	136	23	2.7805176154246
16	202	24	5.9603560211663
16	341	25	9.8054774052067
16	488	26	2.0972236170567
16	647	27	11.084093508098
16	806	28	3.8114569616857
16	965	29	7.8794200001249
16	1120	30	3.9326299356394
16	1279	31	7.5144706730065
16	1450	32	9.7054963520594
16	1617	33	1.5150245350458
16	1780	34	8.9444237376213
16	1943	35	1.1539704700624
16	2094	36	12.843695428375
16	2237	37	4.8314232217423
16	2384	38	5.5296289787403
16	2535	39	8.0264733535746
16	2694	40	6.2746754533405
16	2853	41	2.1515290968118
16	3020	42	2.3810307284354
16	3199	43	8.891019703805
16	3386	44	6.3527952319468
16	3581	45	5.1388987569318
16	3784	46	6.562113107724
16	3987	47	3.6544477460081
16	4198	48	7.9792051922236
16	4417	49	10.308952117684
16	4632	50	5.0421792558498
16	4847	51	9.81619183537
16	5066	52	4.1469277091693
16	5289	53	0.10096151136075
16	5516	54	13.03819107335
16	5735	55	3.2536082368874
16	5950	56	5.0680821274136
16	6169	57	8.1811520663657
16	6384	58	0.973
16	6607	59	0.973
16	6834	60	0.973
16	7069	61	0.973
16	7308	62	0.973
16	7551	63	0.973
16	7798	64	1.1104242329893
16	8045	65	0.973
16	8292	66	0.973
16	8535	67	0.973
16	8782	68	2.078742369328
17	15	14	30.131478162654
17	16	15	29.9896932792
17	17	16	30.336474225038
17	18	17	30.059080006901
17	19	18	30.171027601169
17	20	19	29.965852922465
17	21	20	30.178896962603
17	22	21	30.959595491
17	76	22	30.380359743427
17	136	23	30.30839172861
17	202	24	31.098657288818
17	341	25	30.830074569091
17	488	26	30.900961124859
17	647	27	30.509658606021
17	806	28	30.998279427873
17	965	29	30.492629004581
17	1120	30	30.09495641803
17	1279	31	30.809179109925
17	1450	32	30.032246032202
17	1617	33	30.045310069687
17	1780	34	30.6168702658
17	1943	35	30.977346485012
17	2094	36	30.026005822871
17	2237	37	30.253887447758
17	2384	38	30.43531314033
17	2535	39	31.132046468844
17	2694	40	30.053472868163
17	2853	41	30.29782579804
17	3020	42	30.862420784248
17	3199	43	30.548443662698
17	3386	44	30.411292673958
17	3581	45	30.046317065131
17	3784	46	30.499965181804
17	3987	47	30.874875952719
17	4198	48	30.41367635829
17	4417	49	30.09100147348
17	4632	50	30.507540342802
17	4847	51	23.965690759457
17	5066	52	17.389455049978
17	5289	53	9.3894550499776
17	5516	54	1.3894550499776
17	5735	55	0.2957429890359
17	5950	56	0.15220840189832
17	6169	57	0.035097610957773
17	6384	58	0
17	6607	59	0
17	6834	60	0
17	7069	61	2.0321942714509
17	7308	62	3.9674171694787
17	7551	63	5.2548233250855
17	7798	64	6.8666628273786
17	8045	65	6.6948899110814
17	8292	66	0.94340984341294
17	8535	67	0.252132245342
17	8782	68	0.008485843595315
18	16	15	30.1
18	17	16	30.1
18	18	17	59.61341693521
18	19	18	88.944335745351
18	20	19	118.64992806703
18	21	20	148.25585028025
18	22	21	177.88889429661
18	76	22	207.67796638229
18	136	23	237.68586818022
18	202	24	268.02642293632
18	341	25	298.03236278334
18	488	26	328.06859378708
18	647	27	357.43582171159
18	806	28	386.76906208685
18	965	29	416.46242734279
18	1120	30	445.87071538582
18	1279	31	476.06314951087
18	1450	32	505.73766964863
18	1617	33	535.10092512583
18	1780	34	565.49899419269
18	1943	35	595.27967523019
18	2094	36	625.705287769
18	2237	37	656.08289962915
18	2384	38	686.05052990332
18	2535	39	716.42975591314
18	2694	40	746.02780802947
18	2853	41	776.15031017004
18	3020	42	806.03496091219
18	3199	43	835.73847178322
18	3386	44	865.72554247259
18	3581	45	890.07277402069
18	3784	46	906.64371679978
18	3987	47	915.34468297375
18	4198	48	916.67977143696
18	4417	49	916.73260604354
18	4632	50	916.73260604354
18	4847	51	916.73260604354
18	5066	52	916.73260604354
18	5289	53	918.49268708876
18	5516	54	921.90106921716
18	5735	55	927.21533954001
18	5950	56	934.1244003177
18	6169	57	941.66377926045
18	6384	58	941.76388527359
18	6607	59	941.78287779926
18	6834	60	941.78287779926
18	7069	61	941.78287779926
18	7308	62	941.78287779926
18	7551	63	943.39653764981
18	7798	64	943.39653764981
18	8045	65	943.39653764981
18	8292	66	943.39653764981
18	8535	67	943.39653764981
18	8782	68	945.85149537203
19	16	15	29.95
19	17	16	29.95
19	18	17	29.95
19	19	18	29.95
19	20	19	29.95
19	21	20	29.95
19	22	21	29.95
19	76	22	29.95
19	136	23	29.95
19	202	24	29.95
19	341	25	29.95
19	488	26	29.95
19	647	27	29.95
19	806	28	29.95
19	965	29	29.95
19	1120	30	29.95
19	1279	31	29.95
19	1450	32	29.95
19	1617	33	29.95
19	1780	34	29.95
19	1943	35	29.95
19	2094	36	29.95
19	2237	37	29.95
19	2384	38	29.95
19	2535	39	29.95
19	2694	40	29.95
19	2853	41	29.95
19	3020	42	29.95
19	3199	43	29.95
19	3386	44	29.95
19	3581	45	29.95
19	3784	46	29.95
19	3987	47	29.95
19	4198	48	29.95
19	4417	49	29.95
19	4632	50	29.95
19	4847	51	29.95
19	5066	52	29.95
19	5289	53	29.95
19	5516	54	29.95
19	5735	55	29.95
19	5950	56	29.95
19	6169	57	29.95
19	6384	58	29.95
19	6607	59	29.95
19	6834	60	29.95
19	7069	61	29.95
19	7308	62	29.95
19	7551	63	29.95
19	7798	64	29.95
19	8045	65	29.95
19	8292	66	29.95
19	8535	67	29.95
19	8782	68	29.95
20	16	15	-0.14178488345351
20	17	16	0.34678094583796
20	18	17	-0.27739421813749
20	19	18	0.11194759426871
20	20	19	-0.20517467870377
20	21	20	0.2130440401379
20	22	21	0.7806985283969
20	76	22	-0.57923574757297
20	136	23	-0.071968014817685
20	202	24	0.79026556020835
20	341	25	-0.26858271972742
20	488	26	0.070886555768084
20	647	27	-0.39130251883762
20	806	28	0.48862082185224
20	965	29	-0.50565042329254
20	1120	30	-0.39767258655047
20	1279	31	0.71422269189497
20	1450	32	-0.77693307772279
20	1617	33	0.013064037484583
20	1780	34	0.57156019611284
20	1943	35	0.36047621921171
20	2094	36	-0.95134066214086
20	2237	37	0.22788162488723
20	2384	38	0.18142569257179
20	2535	39	0.6967333285138
20	2694	40	-1.0785736006801
20	2853	41	0.24435292987619
20	3020	42	0.56459498620825
20	3199	43	-0.31397712155012
20	3386	44	-0.13715098873945
20	3581	45	-0.36497560882708
20	3784	46	0.45364811667241
20	3987	47	0.37491077091545
20	4198	48	-0.46119959442876
20	4417	49	-0.32267488481011
20	4632	50	0.41653886932181
20	4847	51	-6.5418495833455
20	5066	52	-6.576235709479
20	5289	53	-8
20	5516	54	-8
20	5735	55	-1.0937120609417
20	5950	56	-0.14353458713758
20	6169	57	-0.11711079094054
20	6384	58	-0.035097610957773
20	6607	59	0
20	6834	60	0
20	7069	61	2.0321942714509
20	7308	62	1.9352228980279
20	7551	63	1.2874061556067
20	7798	64	1.6118395022932
20	8045	65	-0.17177291629721
20	8292	66	-5.7514800676685
20	8535	67	-0.69127759807093
20	8782	68	-0.24364640174669
21	16	15	4.0236101888051
21	17	16	7.687877283448
21	18	17	3.0595349155069
21	19	18	5.916577321475
21	20	19	3.5595506768775
21	21	20	6.6544410033833
21	22	21	11.169799919374
21	76	22	0.92488560332763
21	136	23	4.6183424021835
21	202	24	11.311481055843
21	341	25	3.3087111821645
21	488	26	5.8543304131829
21	647	27	2.3281280809903
21	806	28	9.0072415516275
21	965	29	1.4842107190609
21	1120	30	2.1954964772186
21	1279	31	10.600897372632
21	1450	32	-0.56222706905305
21	1617	33	5.1595296143785
21	1780	34	9.4555862731018
21	1943	35	8.0415273587752
21	2094	36	0.973
21	2237	37	6.7890675946445
21	2384	38	6.5133306979055
21	2535	39	10.626653841247
21	2694	40	0.973
21	2853	41	6.9250317392115
21	3020	42	9.5137526241688
21	3199	43	2.9056426833065
21	3386	44	4.1700729504083
21	3581	45	2.4223868204278
21	3784	46	8.5368773391432
21	3987	47	8.1079264519432
21	4198	48	1.7955423882387
21	4417	49	2.7385703356585
21	4632	50	8.2671853980573
21	4847	51	0.973
21	5066	52	0.973
21	5289	53	0.973
21	5516	54	0.973
21	5735	55	0.973
21	5950	56	0.973
21	6169	57	0.973
21	6384	58	0.973
21	6607	59	0.973
21	6834	60	0.973
21	7069	61	2.2040934163316
21	7308	62	3.1575157570491
21	7551	63	3.0072842138066
21	7798	64	4.138535336536
21	8045	65	0.973
21	8292	66	0.973
21	8535	67	0.973
21	8782	68	0.973
22	17	16	29.51341693521
22	18	17	29.330918810141
22	19	18	29.705592321683
22	20	19	29.605922213217
22	21	20	29.633044016359
22	22	21	29.789072085681
22	76	22	30.00790179793
22	136	23	30.340554756098
22	202	24	30.005939847019
22	341	25	30.036231003746
22	488	26	29.367227924508
22	647	27	29.333240375258
22	806	28	29.693365255938
22	965	29	29.408288043036
22	1120	30	30.192434125042
22	1279	31	29.674520137764
22	1450	32	29.363255477205
22	1617	33	30.398069066854
22	1780	34	29.780681037504
22	1943	35	30.425612538806
22	2094	36	30.377611860153
22	2237	37	29.967630274172
22	2384	38	30.379226009813
22	2535	39	29.598052116329
22	2694	40	30.12250214057
22	2853	41	29.884650742155
22	3020	42	29.703510871026
22	3199	43	29.987070689371
22	3386	44	24.347231548103
22	3581	45	16.570942779089
22	3784	46	8.7009661739748
22	3987	47	1.3350884632084
22	4198	48	0.05283460658029
22	4417	49	0
22	4632	50	0
22	4847	51	0
22	5066	52	1.7600810452132
22	5289	53	3.4083821284003
22	5516	54	5.3142703228514
22	5735	55	6.9090607776889
22	5950	56	7.539378942751
22	6169	57	0.10010601313896
22	6384	58	0.018992525670557
22	6607	59	0
22	6834	60	0
22	7069	61	0
22	7308	62	1.6136598505545
22	7551	63	0
22	7798	64	0
22	8045	65	0
22	8292	66	0
22	8535	67	2.4549577222206
22	8782	68	0
23	18	17	30.1
23	19	18	30.1
23	20	19	61.027886148248
23	21	20	92.157009465881
23	22	21	123.95364954672
23	76	22	155.61198618971
23	136	23	186.76984328026
23	202	24	217.82682887486
23	341	25	248.81749579015
23	488	26	279.93053248034
23	647	27	311.66084508611
23	806	28	343.46849308604
23	965	29	375.3725330845
23	1120	30	407.2213732971
23	1279	31	438.80324968093
23	1450	32	470.70713983162
23	1617	33	501.6910310562
23	1780	34	530.73047783633
23	1943	35	557.4423575944
23	2094	36	576.52396665354
23	2237	37	587.60557571269
23	2384	38	590.68718477183
23	2535	39	591.11723184778
23	2694	40	591.20738061994
23	2853	41	591.21782712116
23	3020	42	591.21782712116
23	3199	43	591.21782712116
23	3386	44	591.21782712116
23	3581	45	592.67901654909
23	3784	46	596.24809048023
23	3987	47	602.15207927425
23	4198	48	609.61950004742
23	4417	49	616.21809323492
23	4632	50	616.29026906197
23	4847	51	616.29026906197
23	5066	52	616.29026906197
23	5289	53	616.29026906197
23	5516	54	618.465990855
23	5735	55	618.465990855
23	5950	56	618.465990855
23	6169	57	618.465990855
23	6384	58	618.465990855
23	6607	59	620.92540923488
23	6834	60	620.92540923488
23	7069	61	620.92540923488
23	7308	62	620.92540923488
23	7551	63	620.92540923488
23	7798	64	623.11489240947
23	8045	65	623.11489240947
23	8292	66	623.11489240947
23	8535	67	623.11489240947
23	8782	68	623.11489240947
24	18	17	26.65
24	19	18	26.65
24	20	19	26.65
24	21	20	26.65
24	22	21	26.65
24	76	22	26.65
24	136	23	26.65
24	202	24	26.65
24	341	25	26.65
24	488	26	26.65
24	647	27	26.65
24	806	28	26.65
24	965	29	26.65
24	1120	30	26.65
24	1279	31	26.65
24	1450	32	26.65
24	1617	33	26.65
24	1780	34	26.65
24	1943	35	26.65
24	2094	36	29.95
24	2237	37	29.95
24	2384	38	29.95
24	2535	39	29.95
24	2694	40	29.95
24	2853	41	29.95
24	3020	42	29.95
24	3199	43	29.95
24	3386	44	29.95
24	3581	45	29.95
24	3784	46	29.95
24	3987	47	29.95
24	4198	48	29.95
24	4417	49	29.95
24	4632	50	29.95
24	4847	51	29.95
24	5066	52	29.95
24	5289	53	29.95
24	5516	54	29.95
24	5735	55	29.95
24	5950	56	29.95
24	6169	57	29.95
24	6384	58	29.95
24	6607	59	29.95
24	6834	60	29.95
24	7069	61	29.95
24	7308	62	29.95
24	7551	63	29.95
24	7798	64	29.95
24	8045	65	29.95
24	8292	66	29.95
24	8535	67	29.95
24	8782	68	29.95
25	18	17	-0.18249812506838
25	19	18	0.37467351154191
25	20	19	-0.099670108465943
25	21	20	0.027121803141199
25	22	21	0.15602806932293
25	76	22	0.21882971224841
25	136	23	0.33265295816818
25	202	24	-0.33461490907939
25	341	25	0.030291156726889
25	488	26	-0.66900307923788
25	647	27	-0.033987549250014
25	806	28	0.36012488068081
25	965	29	-0.28507721290225
25	1120	30	0.78414608200546
25	1279	31	-0.51791398727801
25	1450	32	-0.31126466055866
25	1617	33	1.0348135896493
25	1780	34	-0.61738802934997
25	1943	35	0.64493150130147
25	2094	36	-0.048000678652897
25	2237	37	-0.40998158598086
25	2384	38	0.41159573564073
25	2535	39	-0.78117389348336
25	2694	40	0.52445002424065
25	2853	41	-0.23785139841493
25	3020	42	-0.18113987112883
25	3199	43	0.28355981834466
25	3386	44	-5.6398391412682
25	3581	45	-7.7762887690139
25	3784	46	-7.8699766051141
25	3987	47	-7.3658777107665
25	4198	48	-1.2822538566281
25	4417	49	-0.05283460658029
25	4632	50	0
25	4847	51	0
25	5066	52	1.7600810452132
25	5289	53	1.6483010831871
25	5516	54	1.9058881944511
25	5735	55	1.5947904548375
25	5950	56	0.63031816506211
25	6169	57	-7.439272929612
25	6384	58	-0.081113487468406
25	6607	59	-0.018992525670557
25	6834	60	0
25	7069	61	0
25	7308	62	1.6136598505545
25	7551	63	-1.6136598505545
25	7798	64	0
25	8045	65	0
25	8292	66	0
25	8535	67	2.4549577222206
25	8782	68	-2.4549577222206
26	18	17	3.5659294784843
26	19	18	7.6468193284709
26	20	19	4.2242639566179
26	21	20	5.1370076165296
26	22	21	6.1091648300008
26	76	22	6.6363378961166
26	136	23	7.5861511450319
26	202	24	2.633453330962
26	341	25	5.281494862168
26	488	26	0.13151192067816
26	647	27	4.6163603551946
26	806	28	7.5380250465741
26	965	29	2.8577353345659
26	1120	30	10.814761032162
26	1279	31	1.2515314223426
26	1450	32	2.6625632961871
26	1617	33	12.752220181473
26	1780	34	0.55546269446517
26	1943	35	9.9086391126557
26	2094	36	4.8136081350558
26	2237	37	2.0808346417684
26	2384	38	8.1789663415688
26	2535	39	-0.63909337126441
26	2694	40	8.8952760710181
26	2853	41	3.3041514988823
26	3020	42	3.6672062517764
26	3199	43	7.0968364970498
26	3386	44	0.973
26	3581	45	0.973
26	3784	46	0.973
26	3987	47	0.973
26	4198	48	0.973
26	4417	49	0.973
26	4632	50	0.973
26	4847	51	0.973
26	5066	52	1.9420003620173
26	5289	53	2.6320257624046
26	5516	54	3.8211705034079
26	5735	55	4.1292196020899
26	5950	56	2.658571092546
26	6169	57	0.973
26	6384	58	1.1105449275229
26	6607	59	0.973
26	6834	60	0.973
26	7069	61	0.973
26	7308	62	1.8157705546116
26	7551	63	0.973
26	7798	64	0.973
26	8045	65	0.973
26	8292	66	0.973
26	8535	67	2.682256957522
26	8782	68	0.973
27	19	18	30.1
27	20	19	30.1
27	21	20	58.425111409198
27	22	21	87.811350985196
27	76	22	118.1086132508
27	136	23	148.8698477452
27	202	24	180.98812635724
27	341	25	205.10640496928
27	488	26	221.22468358132
27	647	27	229.53950124141
27	806	28	230.74168256946
27	965	29	230.77065467548
27	1120	30	230.77065467548
27	1279	31	230.77065467548
27	1450	32	230.77065467548
27	1617	33	232.42058520937
27	1780	34	236.17899282811
27	1943	35	241.8438160449
27	2094	36	249.89317190343
27	2237	37	255.67810433467
27	2384	38	255.74854847587
27	2535	39	255.79882989988
27	2694	40	255.79882989988
27	2853	41	255.79882989988
27	3020	42	255.79882989988
27	3199	43	258.19221044106
27	3386	44	258.19221044106
27	3581	45	258.19221044106
27	3784	46	258.19221044106
27	3987	47	258.19221044106
27	4198	48	260.00196985174
27	4417	49	263.16489447398
27	4632	50	263.53721118359
27	4847	51	263.76044604543
27	5066	52	263.76886609388
27	5289	53	263.76886609388
27	5516	54	263.76886609388
27	5735	55	263.76886609388
27	5950	56	265.13881060032
27	6169	57	266.29654938709
27	6384	58	267.09394157103
27	6607	59	267.16502741008
27	6834	60	267.16502741008
27	7069	61	267.16502741008
27	7308	62	267.16502741008
27	7551	63	269.47458403155
27	7798	64	273.39837960112
27	8045	65	277.7350906838
27	8292	66	278.45791955883
27	8535	67	278.57482820226
27	8782	68	278.57970772733
28	19	18	26.65
28	20	19	26.65
28	21	20	26.65
28	22	21	26.65
28	76	22	26.65
28	136	23	29.95
28	202	24	29.95
28	341	25	29.95
28	488	26	29.95
28	647	27	29.95
28	806	28	29.95
28	965	29	29.95
28	1120	30	29.95
28	1279	31	29.95
28	1450	32	29.95
28	1617	33	29.95
28	1780	34	29.95
28	1943	35	29.95
28	2094	36	29.95
28	2237	37	29.95
28	2384	38	29.95
28	2535	39	29.95
28	2694	40	29.95
28	2853	41	29.95
28	3020	42	29.95
28	3199	43	29.95
28	3386	44	29.95
28	3581	45	29.95
28	3784	46	29.95
28	3987	47	29.95
28	4198	48	29.95
28	4417	49	29.95
28	4632	50	29.95
28	4847	51	29.95
28	5066	52	29.95
28	5289	53	29.95
28	5516	54	29.95
28	5735	55	29.95
28	5950	56	29.95
28	6169	57	29.95
28	6384	58	29.95
28	6607	59	29.95
28	6834	60	29.95
28	7069	61	29.95
28	7308	62	29.95
28	7551	63	29.95
28	7798	64	29.95
28	8045	65	29.95
28	8292	66	29.95
28	8535	67	29.95
28	8782	68	29.95
29	19	18	30.927886148248
29	20	19	31.129123317633
29	21	20	31.796640080839
29	22	21	31.658336642987
29	76	22	31.157857090557
29	136	23	31.056985594597
29	202	24	30.990666915287
29	341	25	31.113036690195
29	488	26	31.730312605769
29	647	27	31.807647999932
29	806	28	31.904039998454
29	965	29	31.848840212597
29	1120	30	31.581876383835
29	1279	31	31.903890150689
29	1450	32	30.983891224578
29	1617	33	29.039446780134
29	1780	34	26.711879758073
29	1943	35	19.08160905914
29	2094	36	11.08160905914
29	2237	37	3.0816090591404
29	2384	38	0.43004707595826
29	2535	39	0.090148772155174
29	2694	40	0.01044650121624
29	2853	41	0
29	3020	42	0
29	3199	43	0
29	3386	44	1.4611894279369
29	3581	45	3.5690739311394
29	3784	46	5.9039887940162
29	3987	47	7.4674207731732
29	4198	48	6.5985931874984
29	4417	49	0.072175827054952
29	4632	50	0
29	4847	51	0
29	5066	52	0
29	5289	53	2.1757217930281
29	5516	54	0
29	5735	55	0
29	5950	56	0
29	6169	57	0
29	6384	58	2.4594183798763
29	6607	59	0
29	6834	60	0
29	7069	61	0
29	7308	62	0
29	7551	63	2.1894831745885
29	7798	64	0
29	8045	65	0
29	8292	66	0
29	8535	67	0
29	8782	68	1.3774220488267
30	20	19	0.20123716938542
30	21	20	0.66751676320564
30	22	21	-0.1383034378523
30	76	22	-0.50047955242917
30	136	23	-0.10087149596075
30	202	24	-0.066318679309916
30	341	25	0.12236977490829
30	488	26	0.61727591557428
30	647	27	0.077335394162219
30	806	28	0.096391998522449
30	965	29	-0.05519978585653
30	1120	30	-0.26696382876253
30	1279	31	0.32201376685407
30	1450	32	-0.91999892611057
30	1617	33	-1.9444444444444
30	1780	34	-2.3275670220612
30	1943	35	-7.6302706989324
30	2094	36	-8
30	2237	37	-8
30	2384	38	-2.6515619831822
30	2535	39	-0.33989830380309
30	2694	40	-0.079702270938934
30	2853	41	-0.01044650121624
30	3020	42	0
30	3199	43	0
30	3386	44	1.4611894279369
30	3581	45	2.1078845032025
30	3784	46	2.3349148628768
30	3987	47	1.563431979157
30	4198	48	-0.86882758567481
30	4417	49	-6.5264173604435
30	4632	50	-0.072175827054952
30	4847	51	0
30	5066	52	0
30	5289	53	2.1757217930281
30	5516	54	-2.1757217930281
30	5735	55	0
30	5950	56	0
30	6169	57	0
30	6384	58	2.4594183798763
30	6607	59	-2.4594183798763
30	6834	60	0
30	7069	61	0
30	7308	62	0
30	7551	63	2.1894831745885
30	7798	64	-2.1894831745885
30	8045	65	0
30	8292	66	0
30	8535	67	0
30	8782	68	1.3774220488267
31	20	19	6.9079658926419
31	21	20	10.7287704004
31	22	21	4.5131328336854
31	76	22	1.6492477401462
31	136	23	4.6204567243723
31	202	24	4.8592463853801
31	341	25	6.3107250474184
31	488	26	10.312162813056
31	647	27	6.2100379074277
31	806	28	6.3901172178949
31	965	29	5.2070743395659
31	1120	30	3.5115424148354
31	1279	31	8.1248333571807
31	1450	32	-1.5173062106756
31	1617	33	0.973
31	1780	34	0.973
31	1943	35	0.973
31	2094	36	0.973
31	2237	37	0.973
31	2384	38	0.973
31	2535	39	0.973
31	2694	40	1.1103032803452
31	2853	41	0.973
31	3020	42	0.973
31	3199	43	0.973
31	3386	44	1.6953289420421
31	3581	45	3.0994621769527
31	3784	46	4.7360796035232
31	3987	47	4.322322915283
31	4198	48	0.973
31	4417	49	0.973
31	4632	50	0.973
31	4847	51	0.973
31	5066	52	0.973
31	5289	53	2.3567457045804
31	5516	54	0.973
31	5735	55	0.973
31	5950	56	0.973
31	6169	57	0.973
31	6384	58	2.6877626488162
31	6607	59	0.973
31	6834	60	0.973
31	7069	61	0.973
31	7308	62	0.973
31	7551	63	2.3719048931367
31	7798	64	0.973
31	8045	65	0.973
31	8292	66	0.973
31	8535	67	0.973
31	8782	68	1.633935511578
32	20	19	28.325111409198
32	21	20	29.386239575998
32	22	21	30.297262265602
32	76	22	30.761234494402
32	136	23	32.118278612042
32	202	24	24.118278612042
32	341	25	16.118278612042
32	488	26	8.314817660089
32	647	27	1.2021813280466
32	806	28	0.028972106017767
32	965	29	0
32	1120	30	0
32	1279	31	0
32	1450	32	1.6499305338948
32	1617	33	3.7584076187341
32	1780	34	5.6648232167936
32	1943	35	8.0493558585295
32	2094	36	5.7849324312367
32	2237	37	0.070444141201919
32	2384	38	0.050281424010608
32	2535	39	0
32	2694	40	0
32	2853	41	0
32	3020	42	2.3933805411798
32	3199	43	0
32	3386	44	0
32	3581	45	0
32	3784	46	0
32	3987	47	1.8097594106803
32	4198	48	3.1629246222436
32	4417	49	0.37231670960972
32	4632	50	0.22323486183765
32	4847	51	0.0084200484468511
32	5066	52	0
32	5289	53	0
32	5516	54	0
32	5735	55	1.3699445064412
32	5950	56	1.1577387867688
32	6169	57	0.79739218394529
32	6384	58	0.071085839043835
32	6607	59	0
32	6834	60	0
32	7069	61	0
32	7308	62	2.3095566214761
32	7551	63	3.9237955695717
32	7798	64	4.3367110826744
32	8045	65	0.72282887503337
32	8292	66	0.11690864343041
32	8535	67	0.0048795250665192
32	8782	68	0
33	21	20	30.1
33	22	21	30.1
33	76	22	61.770424632737
33	136	23	92.430186887953
33	202	24	123.82194402452
33	341	25	148.91332486398
33	488	26	167.05862354178
33	647	27	177.26582145662
33	806	28	180.37327964407
33	965	29	180.79649160553
33	1120	30	180.97603521836
33	1279	31	181.11529480238
33	1450	32	181.12731118617
33	1617	33	181.12731118617
33	1780	34	181.12731118617
33	1943	35	181.12731118617
33	2094	36	182.91485504673
33	2237	37	186.65756775812
33	2384	38	192.71347008868
33	2535	39	201.18291368144
33	2694	40	205.31840963761
33	2853	41	205.95338605696
33	3020	42	206.12671377698
33	3199	43	206.22787498281
33	3386	44	206.22998033457
33	3581	45	206.22998033457
33	3784	46	206.22998033457
33	3987	47	206.22998033457
33	4198	48	207.81536313658
33	4417	49	207.81536313658
33	4632	50	207.81536313658
33	4847	51	207.81536313658
33	5066	52	207.81536313658
33	5289	53	209.70544492225
33	5516	54	209.70544492225
33	5735	55	209.70544492225
33	5950	56	209.70544492225
33	6169	57	209.70544492225
33	6384	58	211.14874781673
33	6607	59	214.1281893961
33	6834	60	218.67712097189
33	7069	61	218.87748689861
33	7308	62	218.97548750333
33	7551	63	218.98263859275
33	7798	64	218.98263859275
33	8045	65	218.98263859275
33	8292	66	218.98263859275
33	8535	67	220.90638005702
33	8782	68	224.13994314763
34	21	20	26.65
34	22	21	26.65
34	76	22	26.65
34	136	23	29.95
34	202	24	29.95
34	341	25	29.95
34	488	26	29.95
34	647	27	29.95
34	806	28	29.95
34	965	29	29.95
34	1120	30	29.95
34	1279	31	29.95
34	1450	32	29.95
34	1617	33	29.95
34	1780	34	29.95
34	1943	35	29.95
34	2094	36	29.95
34	2237	37	29.95
34	2384	38	29.95
34	2535	39	29.95
34	2694	40	29.95
34	2853	41	29.95
34	3020	42	29.95
34	3199	43	29.95
34	3386	44	29.95
34	3581	45	29.95
34	3784	46	29.95
34	3987	47	29.95
34	4198	48	29.95
34	4417	49	29.95
34	4632	50	29.95
34	4847	51	29.95
34	5066	52	29.95
34	5289	53	29.95
34	5516	54	29.95
34	5735	55	29.95
34	5950	56	29.95
34	6169	57	29.95
34	6384	58	29.95
34	6607	59	29.95
34	6834	60	29.95
34	7069	61	29.95
34	7308	62	29.95
34	7551	63	29.95
34	7798	64	29.95
34	8045	65	29.95
34	8292	66	29.95
34	8535	67	29.95
34	8782	68	29.95
35	21	20	1.0611281667995
35	22	21	0.91102268960417
35	76	22	0.46397222879992
35	136	23	1.3570441176402
35	202	24	-8
35	341	25	-8
35	488	26	-7.8034609519528
35	647	27	-7.1126363320424
35	806	28	-1.1732092220288
35	965	29	-0.028972106017767
35	1120	30	0
35	1279	31	0
35	1450	32	1.6499305338948
35	1617	33	2.1084770848393
35	1780	34	1.9064155980595
35	1943	35	2.3845326417359
35	2094	36	-2.2644234272928
35	2237	37	-5.7144882900348
35	2384	38	-0.020162717191311
35	2535	39	-0.050281424010608
35	2694	40	0
35	2853	41	0
35	3020	42	2.3933805411798
35	3199	43	-2.3933805411798
35	3386	44	0
35	3581	45	0
35	3784	46	0
35	3987	47	1.8097594106803
35	4198	48	1.3531652115633
35	4417	49	-2.7906079126338
35	4632	50	-0.14908184777207
35	4847	51	-0.2148148133908
35	5066	52	-0.0084200484468511
35	5289	53	0
35	5516	54	0
35	5735	55	1.3699445064412
35	5950	56	-0.21220571967248
35	6169	57	-0.36034660282347
35	6384	58	-0.72630634490146
35	6607	59	-0.071085839043835
35	6834	60	0
35	7069	61	0
35	7308	62	2.3095566214761
35	7551	63	1.6142389480956
35	7798	64	0.41291551310277
35	8045	65	-3.6138822076411
35	8292	66	-0.60592023160296
35	8535	67	-0.1120291183639
35	8782	68	-0.0048795250665192
36	21	20	12.386845117656
36	22	21	11.792610730365
36	76	22	8.7225180777765
36	136	23	16.224354136452
36	202	24	0.973
36	341	25	0.973
36	488	26	0.973
36	647	27	0.973
36	806	28	0.973
36	965	29	0.973
36	1120	30	0.973
36	1279	31	0.973
36	1450	32	1.8460748287906
36	1617	33	3.2060184038439
36	1780	34	4.0027454759886
36	1943	35	6.1722221186941
36	2094	36	0.973
36	2237	37	0.973
36	2384	38	1.1121812593958
36	2535	39	0.973
36	2694	40	0.973
36	2853	41	0.973
36	3020	42	2.6072363553626
36	3199	43	0.973
36	3386	44	0.973
36	3581	45	0.973
36	3784	46	0.973
36	3987	47	1.9871805774104
36	4198	48	2.2969728091115
36	4417	49	0.973
36	4632	50	0.973
36	4847	51	0.973
36	5066	52	0.973
36	5289	53	0.973
36	5516	54	0.973
36	5735	55	1.6286198889623
36	5950	56	0.973
36	6169	57	0.973
36	6384	58	0.973
36	6607	59	0.973
36	6834	60	0.973
36	7069	61	0.973
36	7308	62	2.5080575349207
36	7551	63	2.8313450540336
36	7798	64	1.7582950007888
36	8045	65	0.973
36	8292	66	0.973
36	8535	67	0.973
36	8782	68	0.973
37	22	21	30.1
37	76	22	30.1
37	136	23	57.433541234809
37	202	24	86.667802118077
37	341	25	117.58663465169
37	488	26	150.29659042672
37	647	27	184.66853858425
37	806	28	220.41764064851
37	965	29	258.12755492381
37	1120	30	297.62064706594
37	1279	31	338.79517025313
37	1450	32	379.33901455576
37	1617	33	418.19265650786
37	1780	34	458.46502558407
37	1943	35	491.73739466027
37	2094	36	518.00976373648
37	2237	37	546.24850771893
37	2384	38	575.95022918409
37	2535	39	607.14363519897
37	2694	40	639.8834985336
37	2853	41	674.10232526521
37	3020	42	709.53750774878
37	3199	43	746.41844779628
37	3386	44	784.98759196696
37	3581	45	825.33983915663
37	3784	46	867.26663480894
37	3987	47	911.03973615778
37	4198	48	956.62955766704
37	4417	49	1003.9324641308
37	4632	50	1053.0169677465
37	4847	51	1102.0351383596
37	5066	52	1151.2462655856
37	5289	53	1201.1566625525
37	5516	54	1250.4610371062
37	5735	55	1299.6818451354
37	5950	56	1349.1426215385
37	6169	57	1398.3858428922
37	6384	58	1448.2913849764
37	6607	59	1498.192906973
37	6834	60	1547.9482555642
37	7069	61	1597.4505775856
37	7308	62	1647.2011575425
37	7551	63	1696.963415719
37	7798	64	1746.0031589364
37	8045	65	1795.6736162294
37	8292	66	1844.9632794013
37	8535	67	1894.5084195252
37	8782	68	1943.889593355
38	22	21	26.65
38	76	22	26.65
38	136	23	26.65
38	202	24	26.65
38	341	25	26.65
38	488	26	26.65
38	647	27	26.65
38	806	28	26.65
38	965	29	26.65
38	1120	30	26.65
38	1279	31	26.65
38	1450	32	26.65
38	1617	33	29.95
38	1780	34	29.95
38	1943	35	29.95
38	2094	36	26.65
38	2237	37	26.65
38	2384	38	26.65
38	2535	39	26.65
38	2694	40	26.65
38	2853	41	26.65
38	3020	42	26.65
38	3199	43	26.65
38	3386	44	26.65
38	3581	45	26.65
38	3784	46	26.65
38	3987	47	26.65
38	4198	48	26.65
38	4417	49	26.65
38	4632	50	26.65
38	4847	51	26.65
38	5066	52	26.65
38	5289	53	26.65
38	5516	54	26.65
38	5735	55	26.65
38	5950	56	26.65
38	6169	57	26.65
38	6384	58	26.65
38	6607	59	26.65
38	6834	60	26.65
38	7069	61	26.65
38	7308	62	26.65
38	7551	63	26.65
38	7798	64	26.65
38	8045	65	26.65
38	8292	66	26.65
38	8535	67	26.65
38	8782	68	26.65
39	22	21	31.670424632737
39	76	22	30.659762255216
39	136	23	31.391757136569
39	202	24	25.09138083946
39	341	25	18.145298677798
39	488	26	10.207197914842
39	647	27	3.1074581874523
39	806	28	0.42321196145977
39	965	29	0.17954361282481
39	1120	30	0.13925958402016
39	1279	31	0.012016383795518
39	1450	32	0
39	1617	33	0
39	1780	34	0
39	1943	35	1.7875438605552
39	2094	36	3.7427127113915
39	2237	37	6.0559023305541
39	2384	38	8.4694435927668
39	2535	39	4.1354959561643
39	2694	40	0.63497641935481
39	2853	41	0.17332772001476
39	3020	42	0.10116120583501
39	3199	43	0.0021053517609086
39	3386	44	0
39	3581	45	0
39	3784	46	0
39	3987	47	1.5853828020045
39	4198	48	0
39	4417	49	0
39	4632	50	0
39	4847	51	0
39	5066	52	1.8900817856775
39	5289	53	0
39	5516	54	0
39	5735	55	0
39	5950	56	0
39	6169	57	1.4433028944768
39	6384	58	2.9794415793731
39	6607	59	4.5489315757879
39	6834	60	0.20036592671704
39	7069	61	0.098000604721678
39	7308	62	0.007151089415064
39	7551	63	0
39	7798	64	0
39	8045	65	0
39	8292	66	1.9237414642703
39	8535	67	3.2335630906164
39	8782	68	5.0723881804151
40	76	22	30.1
40	136	23	30.1
40	202	24	55.483009401685
40	341	25	82.167332216794
40	488	26	102.98081490935
40	647	27	115.90887209632
40	806	28	120.95150377768
40	965	29	121.05421227897
40	1120	30	121.06436972779
40	1279	31	121.06436972779
40	1450	32	121.06436972779
40	1617	33	121.06436972779
40	1780	34	122.6987052384
40	1943	35	126.45607222872
40	2094	36	131.97484826535
40	2237	37	134.12068995095
40	2384	38	134.76609185157
40	2535	39	135.08848548593
40	2694	40	135.24628984847
40	2853	41	135.2566838208
40	3020	42	136.09746696232
40	3199	43	138.8952293177
40	3386	44	143.29962050705
40	3581	45	145.04377837431
40	3784	46	145.87729524447
40	3987	47	146.08363931801
40	4198	48	146.13342960915
40	4417	49	146.13342960915
40	4632	50	146.13342960915
40	4847	51	146.13342960915
40	5066	52	148.44974630713
40	5289	53	152.010250659
40	5516	54	152.50521084471
40	5735	55	152.56243386671
40	5950	56	152.56243386671
40	6169	57	152.56243386671
40	6384	58	152.56243386671
40	6607	59	154.59215063996
40	6834	60	158.28954352053
40	7069	61	163.16150806467
40	7308	62	164.03094188102
40	7551	63	164.19517344992
40	7798	64	164.26649329514
40	8045	65	164.26649329514
40	8292	66	164.26649329514
40	8535	67	164.26649329514
40	8782	68	166.39145715074
41	76	22	26.65
41	136	23	26.65
41	202	24	29.95
41	341	25	29.95
41	488	26	29.95
41	647	27	29.95
41	806	28	29.95
41	965	29	29.95
41	1120	30	29.95
41	1279	31	29.95
41	1450	32	29.95
41	1617	33	29.95
41	1780	34	29.95
41	1943	35	29.95
41	2094	36	29.95
41	2237	37	29.95
41	2384	38	29.95
41	2535	39	29.95
41	2694	40	29.95
41	2853	41	29.95
41	3020	42	29.95
41	3199	43	29.95
41	3386	44	29.95
41	3581	45	29.95
41	3784	46	29.95
41	3987	47	29.95
41	4198	48	29.95
41	4417	49	29.95
41	4632	50	29.95
41	4847	51	29.95
41	5066	52	29.95
41	5289	53	29.95
41	5516	54	29.95
41	5735	55	29.95
41	5950	56	29.95
41	6169	57	29.95
41	6384	58	29.95
41	6607	59	29.95
41	6834	60	29.95
41	7069	61	29.95
41	7308	62	29.95
41	7551	63	29.95
41	7798	64	29.95
41	8045	65	29.95
41	8292	66	29.95
41	8535	67	29.95
41	8782	68	29.95
42	76	22	-1.0106623775209
42	136	23	0.73199488135288
42	202	24	-6.3003762971089
42	341	25	-6.9460821616619
42	488	26	-7.9381007629563
42	647	27	-7.0997397273895
42	806	28	-2.6842462259926
42	965	29	-0.24366834863496
42	1120	30	-0.040284028804651
42	1279	31	-0.12724320022464
42	1450	32	-0.012016383795518
42	1617	33	0
42	1780	34	0
42	1943	35	1.7875438605552
42	2094	36	1.9551688508363
42	2237	37	2.3131896191626
42	2384	38	2.4135412622127
42	2535	39	-4.3339476366025
42	2694	40	-3.5005195368094
42	2853	41	-0.46164869934005
42	3020	42	-0.072166514179749
42	3199	43	-0.099055854074103
42	3386	44	-0.0021053517609086
42	3581	45	0
42	3784	46	0
42	3987	47	1.5853828020045
42	4198	48	-1.5853828020045
42	4417	49	0
42	4632	50	0
42	4847	51	0
42	5066	52	1.8900817856775
42	5289	53	-1.8900817856775
42	5516	54	0
42	5735	55	0
42	5950	56	0
42	6169	57	1.4433028944768
42	6384	58	1.5361386848963
42	6607	59	1.5694899964148
42	6834	60	-4.3485656490709
42	7069	61	-0.10236532199536
42	7308	62	-0.090849515306614
42	7551	63	-0.007151089415064
42	7798	64	0
42	8045	65	0
42	8292	66	1.9237414642703
42	8535	67	1.3098216263461
42	8782	68	1.8388250897988
43	76	22	0.973
43	136	23	11.019901612745
43	202	24	0.973
43	341	25	0.973
43	488	26	0.973
43	647	27	0.973
43	806	28	0.973
43	965	29	0.973
43	1120	30	1.1153661369805
43	1279	31	0.973
43	1450	32	0.973
43	1617	33	0.973
43	1780	34	0.973
43	1943	35	1.9668292079024
43	2094	36	3.0589417685194
43	2237	37	4.7986900598736
43	2384	38	6.5010542313184
43	2535	39	0.973
43	2694	40	0.973
43	2853	41	0.973
43	3020	42	1.1131207033695
43	3199	43	1.1100513022424
43	3386	44	0.973
43	3581	45	0.973
43	3784	46	0.973
43	3987	47	1.7925856838169
43	4198	48	0.973
43	4417	49	0.973
43	4632	50	0.973
43	4847	51	0.973
43	5066	52	2.0627519077064
43	5289	53	0.973
43	5516	54	0.973
43	5735	55	0.973
43	5950	56	0.973
43	6169	57	1.6819353780147
43	6384	58	2.3591889128567
43	6607	59	3.0587562134986
43	6834	60	0.973
43	7069	61	0.973
43	7308	62	1.1101883973924
43	7551	63	0.973
43	7798	64	0.973
43	8045	65	0.973
43	8292	66	2.0953472398186
43	8535	67	2.2898396038905
43	8782	68	3.6146117483134
44	76	22	27.333541234809
44	136	23	29.234260883269
44	202	24	30.918832533614
44	341	25	32.709955775033
44	488	26	34.371948157524
44	647	27	35.749102064262
44	806	28	37.709914275299
44	965	29	39.493092142132
44	1120	30	41.174523187189
44	1279	31	40.543844302633
44	1450	32	38.853641952097
44	1617	33	40.272369076207
44	1780	34	33.272369076207
44	1943	35	26.272369076207
44	2094	36	28.238743982452
44	2237	37	29.701721465157
44	2384	38	31.193406014878
44	2535	39	32.739863334631
44	2694	40	34.218826731609
44	2853	41	35.435182483576
44	3020	42	36.8809400475
44	3199	43	38.569144170673
44	3386	44	40.352247189672
44	3581	45	41.926795652311
44	3784	46	43.773101348837
44	3987	47	45.58982150926
44	4198	48	47.302906463796
44	4417	49	49.084503615683
44	4632	50	49.018170613097
44	4847	51	49.211127226008
44	5066	52	49.91039696685
44	5289	53	49.304374553729
44	5516	54	49.220808029175
44	5735	55	49.460776403081
44	5950	56	49.24322135374
44	6169	57	49.905542084249
44	6384	58	49.901521996595
44	6607	59	49.755348591134
44	6834	60	49.502322021406
44	7069	61	49.750579956919
44	7308	62	49.762258176459
44	7551	63	49.039743217407
44	7798	64	49.670457293047
44	8045	65	49.289663171861
44	8292	66	49.545140123926
44	8535	67	49.381173829781
44	8782	68	49.7619564794
45	136	23	30.1
45	202	24	30.1
45	341	25	59.641503654123
45	488	26	85.021774248663
45	647	27	102.4020448432
45	806	28	111.78231543774
45	965	29	113.16258603229
45	1120	30	116.61006155223
45	1279	31	122.55168913359
45	1450	32	129.95714167954
45	1617	33	139.3010970606
45	1780	34	141.58004022122
45	1943	35	142.50313971976
45	2094	36	142.7365941487
45	2237	37	142.76210299191
45	2384	38	142.76210299191
45	2535	39	142.76210299191
45	2694	40	142.76210299191
45	2853	41	144.38158499273
45	3020	42	147.5884144607
45	3199	43	153.22472101041
45	3386	44	160.24018844728
45	3581	45	163.66185912101
45	3784	46	163.66191038234
45	3987	47	163.66191038234
45	4198	48	163.66191038234
45	4417	49	163.66191038234
45	4632	50	164.94408704731
45	4847	51	167.64852431964
45	5066	52	168.56257532565
45	5289	53	168.70526356486
45	5516	54	168.72668044219
45	5735	55	168.72668044219
45	5950	56	168.72668044219
45	6169	57	168.72668044219
45	6384	58	170.72510607089
45	6607	59	175.05971265622
45	6834	60	175.47104673778
45	7069	61	175.57555932827
45	7308	62	175.64016619287
45	7551	63	175.64016619287
45	7798	64	175.64016619287
45	8045	65	175.64016619287
45	8292	66	177.46632425839
45	8535	67	181.50778294916
45	8782	68	187.34576273474
46	136	23	26.65
46	202	24	26.65
46	341	25	26.65
46	488	26	26.65
46	647	27	26.65
46	806	28	26.65
46	965	29	26.65
46	1120	30	26.65
46	1279	31	26.65
46	1450	32	29.95
46	1617	33	29.95
46	1780	34	29.95
46	1943	35	29.95
46	2094	36	29.95
46	2237	37	29.95
46	2384	38	29.95
46	2535	39	29.95
46	2694	40	29.95
46	2853	41	29.95
46	3020	42	29.95
46	3199	43	29.95
46	3386	44	29.95
46	3581	45	29.95
46	3784	46	29.95
46	3987	47	29.95
46	4198	48	29.95
46	4417	49	29.95
46	4632	50	29.95
46	4847	51	29.95
46	5066	52	29.95
46	5289	53	29.95
46	5516	54	29.95
46	5735	55	29.95
46	5950	56	29.95
46	6169	57	29.95
46	6384	58	29.95
46	6607	59	29.95
46	6834	60	29.95
46	7069	61	29.95
46	7308	62	29.95
46	7551	63	29.95
46	7798	64	29.95
46	8045	65	29.95
46	8292	66	29.95
46	8535	67	29.95
46	8782	68	29.95
47	136	23	1.9007196484599
47	202	24	1.6845716503449
47	341	25	1.791123241419
47	488	26	1.661992382491
47	647	27	1.3771539067384
47	806	28	1.9608122110367
47	965	29	1.7831778668333
47	1120	30	1.6814310450573
47	1279	31	-0.6306788845566
47	1450	32	-1.6902023505356
47	1617	33	1.4187271241099
47	1780	34	-7
47	1943	35	-7
47	2094	36	1.9663749062456
47	2237	37	1.4629774827044
47	2384	38	1.491684549721
47	2535	39	1.5464573197532
47	2694	40	1.4789633969776
47	2853	41	1.2163557519671
47	3020	42	1.4457575639244
47	3199	43	1.6882041231729
47	3386	44	1.7831030189991
47	3581	45	1.5745484626386
47	3784	46	1.8463056965265
47	3987	47	1.8167201604228
47	4198	48	1.7130849545356
47	4417	49	1.7815971518867
47	4632	50	-0.066333002585473
47	4847	51	0.19295661291108
47	5066	52	0.69926974084228
47	5289	53	-0.60602241312154
47	5516	54	-0.083566524554044
47	5735	55	0.23996837390587
47	5950	56	-0.21755504934117
47	6169	57	0.66232073050924
47	6384	58	-0.004020087653771
47	6607	59	-0.14617340546101
47	6834	60	-0.25302656972781
47	7069	61	0.24825793551281
47	7308	62	0.011678219540045
47	7551	63	-0.72251495905221
47	7798	64	0.63071407563984
47	8045	65	-0.38079412118532
47	8292	66	0.25547695206478
47	8535	67	-0.16396629414521
47	8782	68	0.3807826496195
48	136	23	18.219769433794
48	202	24	17.884505340525
48	341	25	20.040581771038
48	488	26	20.286777385219
48	647	27	18.919993264929
48	806	28	25.702972618351
48	965	29	25.677452219659
48	1120	30	26.229696198108
48	1279	31	3.0601223248885
48	1450	32	0.973
48	1617	33	22.856241235014
48	1780	34	0.973
48	1943	35	0.973
48	2094	36	17.93469263908
48	2237	37	15.435541416172
48	2384	38	16.632564603777
48	2535	39	18.133321477704
48	2694	40	18.658755909969
48	2853	41	17.317254333621
48	3020	42	20.373714228747
48	3199	43	23.962914661947
48	3386	44	26.466896712164
48	3581	45	25.850791049416
48	3784	46	30.446969068447
48	3987	47	32.023216227916
48	4198	48	32.698749385625
48	4417	49	35.47760912281
48	4632	50	13.57139779824
48	4847	51	16.781761532878
48	5066	52	23.414168141683
48	5289	53	7.3595459273588
48	5516	54	13.509000444898
48	5735	55	17.534200194363
48	5950	56	11.93456137214
48	6169	57	22.965370030207
48	6384	58	14.948167411167
48	6607	59	13.136110373699
48	6834	60	11.685338667917
48	7069	61	17.861965281713
48	7308	62	15.034009304875
48	7551	63	5.831327376538
48	7798	64	22.376656917674
48	8045	65	10.026520627595
48	8292	66	17.785621540163
48	8535	67	12.664703450317
48	8782	68	19.460320277163
49	136	23	25.383009401685
49	202	24	26.684322815108
49	341	25	20.813482692561
49	488	26	12.928057186962
49	647	27	5.0426316813627
49	806	28	0.10270850129038
49	965	29	0.010157448824566
49	1120	30	0
49	1279	31	0
49	1450	32	0
49	1617	33	1.6343355106073
49	1780	34	3.7573669903213
49	1943	35	5.5187760366243
49	2094	36	2.1458416856029
49	2237	37	0.64540190061737
49	2384	38	0.32239363436038
49	2535	39	0.15780436253732
49	2694	40	0.010393972335329
49	2853	41	0.84078314151533
49	3020	42	2.7977623553799
49	3199	43	4.4043911893588
49	3386	44	1.7441578672571
49	3581	45	0.83351687015845
49	3784	46	0.20634407353907
49	3987	47	0.049790291142834
49	4198	48	0
49	4417	49	0
49	4632	50	0
49	4847	51	2.3163166979793
49	5066	52	3.5605043518687
49	5289	53	0.49496018570721
49	5516	54	0.057223022002633
49	5735	55	0
49	5950	56	0
49	6169	57	0
49	6384	58	2.0297167732497
49	6607	59	3.6973928805673
49	6834	60	4.8719645441463
49	7069	61	0.86943381634399
49	7308	62	0.16423156890648
49	7551	63	0.071319845214624
49	7798	64	0
49	8045	65	0
49	8292	66	0
49	8535	67	2.1249638556037
49	8782	68	4.2444058984984
50	202	24	30.1
50	341	25	30.1
50	488	26	57.068581040764
50	647	27	80.502520628074
50	806	28	96.088771198936
50	965	29	104.15405230598
50	1120	30	113.51581165998
50	1279	31	113.56058038561
50	1450	32	113.56324886893
50	1617	33	113.5633579009
50	1780	34	113.56336903182
50	1943	35	115.08067458473
50	2094	36	118.74127666886
50	2237	37	124.35669484749
50	2384	38	126.61119028063
50	2535	39	133.01511275559
50	2694	40	143.52916318385
50	2853	41	158.45321517567
50	3020	42	177.85460064106
50	3199	43	201.65588665588
50	3386	44	227.39435567427
50	3581	45	253.68560794267
50	3784	46	280.62041948406
50	3987	47	309.543484796
50	4198	48	340.19493511464
50	4417	49	375.1158083738
50	4632	50	406.82550345802
50	4847	51	442.59388368915
50	5066	52	472.57848504519
50	5289	53	506.84867165948
50	5516	54	535.01932248299
50	5735	55	567.33733172103
50	5950	56	591.70032336851
50	6169	57	606.06331501599
50	6384	58	610.95764302785
50	6607	59	610.96482834979
50	6834	60	613.25627893569
50	7069	61	613.40784013797
50	7308	62	613.42328234485
50	7551	63	613.42437624021
50	7798	64	613.42440630481
50	8045	65	615.5390780823
50	8292	66	615.61314863241
50	8535	67	615.61384079458
50	8782	68	615.61389077592
51	202	24	26.65
51	341	25	26.65
51	488	26	26.65
51	647	27	26.65
51	806	28	26.65
51	965	29	29.95
51	1120	30	29.95
51	1279	31	29.95
51	1450	32	29.95
51	1617	33	29.95
51	1780	34	29.95
51	1943	35	29.95
51	2094	36	29.95
51	2237	37	29.95
51	2384	38	26.65
51	2535	39	26.65
51	2694	40	26.65
51	2853	41	26.65
51	3020	42	26.65
51	3199	43	26.65
51	3386	44	26.65
51	3581	45	26.65
51	3784	46	26.65
51	3987	47	26.65
51	4198	48	29.95
51	4417	49	29.95
51	4632	50	29.95
51	4847	51	29.95
51	5066	52	29.95
51	5289	53	29.95
51	5516	54	29.95
51	5735	55	29.95
51	5950	56	29.95
51	6169	57	29.95
51	6384	58	29.95
51	6607	59	29.95
51	6834	60	29.95
51	7069	61	29.95
51	7308	62	29.95
51	7551	63	29.95
51	7798	64	29.95
51	8045	65	29.95
51	8292	66	29.95
51	8535	67	29.95
51	8782	68	29.95
52	202	24	1.3013134134235
52	341	25	-5.8708401225471
52	488	26	-7.8854255055995
52	647	27	-7.8854255055992
52	806	28	-4.9399231800723
52	965	29	-0.092551052465809
52	1120	30	-0.010157448824566
52	1279	31	0
52	1450	32	0
52	1617	33	1.6343355106073
52	1780	34	2.123031479714
52	1943	35	1.761409046303
52	2094	36	-3.3729343510215
52	2237	37	-1.5004397849855
52	2384	38	-0.32300826625699
52	2535	39	-0.16458927182306
52	2694	40	-0.14741039020199
52	2853	41	0.83038916918
52	3020	42	1.9569792138645
52	3199	43	1.6066288339789
52	3386	44	-2.6602333221016
52	3581	45	-0.9106409970987
52	3784	46	-0.62717279661938
52	3987	47	-0.15655378239624
52	4198	48	-0.049790291142834
52	4417	49	0
52	4632	50	0
52	4847	51	2.3163166979793
52	5066	52	1.2441876538894
52	5289	53	-3.0655441661615
52	5516	54	-0.43773716370458
52	5735	55	-0.057223022002633
52	5950	56	0
52	6169	57	0
52	6384	58	2.0297167732497
[...]
506	43787	343	1.9801771521106
506	43788	344	8.2799626383427
506	43789	345	6.0345483598639
506	43790	346	4.1901544589077
506	43791	347	1.0621295955795
506	43792	348	6.3571682477429
506	43793	349	2.1383997572356
506	43794	350	10.996534504582
506	43795	351	0.29370046326149
506	43796	352	1.4580423057647
506	43797	353	5.9392228825427
506	43798	354	5.8137634972831
506	43799	355	3.8056655080742
506	43800	356	9.7788803233314
506	43801	357	0.973
506	43802	358	4.5182165499647
506	43803	359	13.019719468885
505	37144	192	0.20740473439218
505	37354	193	-0.40699296630919
505	37564	194	-0.11598351586144
505	37774	195	-0.29534538916778
505	37982	196	0.1475989582832
505	38190	197	0.35630647616927
505	38394	198	-0.20117202511756
505	38598	199	0.025459302996751
505	38800	200	0.57462186028715
505	38996	201	-0.059385186177678
505	39190	202	-0.1595063766581
505	39384	203	0.16334551793989
505	39578	204	-0.83169423422078
505	39772	205	0.13537317805458
505	39966	206	0.80799365096027
505	40160	207	-0.44060996471671
505	40354	208	0.58820989215747
505	40548	209	-0.86199627869064
505	40742	210	0.25632971461164
505	40934	211	-0.25777360919164
505	41126	212	-0.21996559924446
505	41314	213	0.11463423172245
505	41500	214	-0.10356417566072
505	41686	215	0.1580464685685
505	41872	216	0.88768021319993
505	42058	217	-1.0590910739847
505	42244	218	0.90338694659295
505	42426	219	-0.25385718065081
505	42608	220	0.021885233873036
505	42790	221	-0.12574023363413
505	42966	222	-0.29681109823287
505	43142	223	0.039786892593838
505	43318	224	-0.092091300466564
505	43494	225	-0.15631523099728
505	43670	226	0.5777484580176
505	43671	227	0.33467585744802
505	43672	228	-0.9727678305353
505	43673	229	1.1556256428594
505	43674	230	-1.2389507578337
505	43675	231	1.1338984270697
505	43676	232	-0.11139686510433
505	43677	233	-0.069449573056772
505	43678	234	-0.69158300815616
505	43679	235	0.14630509831477
505	43680	236	-0.21801813592901
505	43681	237	0.78490720043192
505	43682	238	-0.011363340890966
505	43683	239	-0.23442094621714
505	43684	240	-0.20669621473644
505	43685	241	0.494280589337
505	43686	242	-0.32462623843458
505	43687	243	-0.64646979764802
505	43688	244	0.94957046880154
505	43689	245	-0.70009112765547
505	43690	246	0.59272208134644
505	43691	247	-0.60355206835084
505	43692	248	0.10770335851703
505	43693	249	0.28241401829291
505	43694	250	0.36117803363595
505	43695	251	-0.81889384659007
505	43696	252	0.94066429330269
505	43697	253	-0.43649167375406
505	43698	254	-0.68113652378088
505	43699	255	0.98308449640172
505	43700	256	-0.28294525924139
505	43701	257	0.41298846103018
505	43702	258	-0.21203618030995
505	43703	259	-0.18211414891994
505	43704	260	0.17076371237636
505	43705	261	-0.34052714530844
505	43706	262	0.38696925272234
505	43707	263	-0.70895709854085
505	43708	264	0.25900421256665
505	43709	265	0.10601488582324
505	43710	266	-0.41224196116673
505	43711	267	0.080090022238437
505	43712	268	0.92984066548524
505	43713	269	-0.14950018230593
505	43714	270	-0.96532885509077
505	43715	271	-0.039001115655992
505	43716	272	0.72882648761151
505	43717	273	0.36915267613949
505	43718	274	-0.87987192207947
505	43719	275	0.83195523155155
505	43720	276	-0.026863757229876
505	43721	277	-0.50828627339797
505	43722	278	-0.39994817547267
505	43723	279	0.012276612105779
505	43724	280	0.53047724592034
505	43725	281	0.3643813560484
505	43726	282	-0.85398196039023
505	43727	283	0.38856011553435
505	43728	284	0.096370308310725
505	43729	285	-0.42575290164677
505	43730	286	0.67775020143017
505	43731	287	-0.88567381142639
505	43732	288	0.27748066495406
505	43733	289	0.034491191036068
505	43734	290	-0.12782434147084
505	43735	291	0.17984565667575
505	43736	292	0.12453256407753
505	43737	293	-0.31499861099292
505	43738	294	-0.1838323919219
505	43739	295	0.324436549854
505	43740	296	0.60001934092725
505	43741	297	-0.89409285399597
505	43742	298	0.68341520265676
505	43743	299	-0.31261812837329
505	43744	300	0.20366115262732
505	43745	301	0.36673737602541
505	43746	302	-0.90748565184185
505	43747	303	0.26594921509968
505	43748	304	0.63048020092538
505	43749	305	-0.94169337855419
505	43750	306	0.079440044937655
505	43751	307	-0.12205656530568
505	43752	308	0.86740724946139
505	43753	309	0.12688943039393
505	43754	310	-0.75043295917567
505	43755	311	0.47858465521131
505	43756	312	-0.087367431842722
505	43757	313	-0.26085923047503
505	43758	314	0.67319251014851
505	43759	315	-1.0905779059976
505	43760	316	0.91273698199075
505	43761	317	0.20788847847143
505	43762	318	-0.56808800378349
505	43763	319	0.4698798438767
505	43764	320	-0.20853366178926
505	43765	321	-0.47091126587475
505	43766	322	0.38323216576828
505	43767	323	-0.20780194550753
505	43768	324	0.56618814589456
505	43769	325	-0.8096100736293
505	43770	326	0.40578189160442
505	43771	327	0.45666694670217
505	43772	328	-0.88100168330129
505	43773	329	0.18099571869243
505	43774	330	-0.23922640772071
505	43775	331	0.98342871991917
505	43776	332	-0.83453558647307
505	43777	333	0.81424611620605
505	43778	334	-0.24829068075633
505	43779	335	-0.80602289148374
505	43780	336	0.13465919415466
505	43781	337	0.65409011964221
505	43782	338	-0.87908131070435
505	43783	339	0.32087750878418
505	43784	340	0.13336616451852
505	43785	341	0.47052117472049
505	43786	342	0.070372344052885
505	43787	343	-0.4091103959945
505	43788	344	0.45383925433271
505	43789	345	0.13571106159361
505	43790	346	-0.11506090813782
505	43791	347	-0.53720910160337
505	43792	348	0.20167468814179
505	43793	349	-0.38017503364244
505	43794	350	0.82245312747546
505	43795	351	-0.64579885511193
505	43796	352	-0.46990909118904
505	43797	353	0.16622945171548
505	43798	354	0.14187524328008
505	43799	355	-0.13865377113689
505	43800	356	0.67140271828976
505	43801	357	-0.88643906754442
505	43802	358	-0.027406733715907
505	43803	359	1.108561551664
504	36934	191	29.489413813356
504	37144	192	29.696818547748
504	37354	193	29.289825581439
504	37564	194	29.173842065578
504	37774	195	28.87849667641
504	37982	196	29.026095634693
504	38190	197	29.382402110862
504	38394	198	29.181230085745
504	38598	199	29.206689388741
504	38800	200	29.781311249029
504	38996	201	29.721926062851
504	39190	202	29.562419686193
504	39384	203	29.725765204133
504	39578	204	28.894070969912
504	39772	205	29.029444147966
504	39966	206	29.837437798927
504	40160	207	29.39682783421
504	40354	208	29.985037726368
504	40548	209	29.123041447677
504	40742	210	29.379371162289
504	40934	211	29.121597553097
504	41126	212	28.901631953852
504	41314	213	29.016266185575
504	41500	214	28.912702009914
504	41686	215	29.070748478483
504	41872	216	29.958428691683
504	42058	217	28.899337617698
504	42244	218	29.802724564291
504	42426	219	29.54886738364
504	42608	220	29.570752617513
504	42790	221	29.445012383879
504	42966	222	29.148201285646
504	43142	223	29.18798817824
504	43318	224	29.095896877773
504	43494	225	28.939581646776
504	43670	226	29.517330104794
504	43671	227	29.852005962242
504	43672	228	28.879238131706
504	43673	229	30.034863774566
504	43674	230	28.795913016732
504	43675	231	29.929811443802
504	43676	232	29.818414578697
504	43677	233	29.748965005641
504	43678	234	29.057381997484
504	43679	235	29.203687095799
504	43680	236	28.98566895987
504	43681	237	29.770576160302
504	43682	238	29.759212819411
504	43683	239	29.524791873194
504	43684	240	29.318095658458
504	43685	241	29.812376247795
504	43686	242	29.48775000936
504	43687	243	28.841280211712
504	43688	244	29.790850680513
504	43689	245	29.090759552858
504	43690	246	29.683481634204
504	43691	247	29.079929565854
504	43692	248	29.187632924371
504	43693	249	29.470046942664
504	43694	250	29.831224976299
504	43695	251	29.012331129709
504	43696	252	29.952995423012
504	43697	253	29.516503749258
504	43698	254	28.835367225477
504	43699	255	29.818451721879
504	43700	256	29.535506462637
504	43701	257	29.948494923668
504	43702	258	29.736458743358
504	43703	259	29.554344594438
504	43704	260	29.725108306814
504	43705	261	29.384581161506
504	43706	262	29.771550414228
504	43707	263	29.062593315687
504	43708	264	29.321597528254
504	43709	265	29.427612414077
504	43710	266	29.01537045291
504	43711	267	29.095460475149
504	43712	268	30.025301140634
504	43713	269	29.875800958328
504	43714	270	28.910472103237
504	43715	271	28.871470987581
504	43716	272	29.600297475193
504	43717	273	29.969450151332
504	43718	274	29.089578229253
504	43719	275	29.921533460804
504	43720	276	29.894669703575
504	43721	277	29.386383430177
504	43722	278	28.986435254704
504	43723	279	28.99871186681
504	43724	280	29.52918911273
504	43725	281	29.893570468778
504	43726	282	29.039588508388
504	43727	283	29.428148623923
504	43728	284	29.524518932233
504	43729	285	29.098766030586
504	43730	286	29.776516232017
504	43731	287	28.89084242059
504	43732	288	29.168323085544
504	43733	289	29.20281427658
504	43734	290	29.07498993511
504	43735	291	29.254835591785
504	43736	292	29.379368155863
504	43737	293	29.06436954487
504	43738	294	28.880537152948
504	43739	295	29.204973702802
504	43740	296	29.804993043729
504	43741	297	28.910900189733
504	43742	298	29.59431539239
504	43743	299	29.281697264017
504	43744	300	29.485358416644
504	43745	301	29.852095792669
504	43746	302	28.944610140828
504	43747	303	29.210559355927
504	43748	304	29.841039556853
504	43749	305	28.899346178299
504	43750	306	28.978786223236
504	43751	307	28.85672965793
504	43752	308	29.724136907392
504	43753	309	29.851026337786
504	43754	310	29.10059337861
504	43755	311	29.579178033821
504	43756	312	29.491810601979
504	43757	313	29.230951371504
504	43758	314	29.904143881652
504	43759	315	28.813565975655
504	43760	316	29.726302957645
504	43761	317	29.934191436117
504	43762	318	29.366103432333
504	43763	319	29.83598327621
504	43764	320	29.627449614421
504	43765	321	29.156538348546
504	43766	322	29.539770514314
504	43767	323	29.331968568807
504	43768	324	29.898156714701
504	43769	325	29.088546641072
504	43770	326	29.494328532676
504	43771	327	29.950995479379
504	43772	328	29.069993796077
504	43773	329	29.25098951477
504	43774	330	29.011763107049
504	43775	331	29.995191826968
504	43776	332	29.160656240495
504	43777	333	29.974902356701
504	43778	334	29.726611675945
504	43779	335	28.920588784461
504	43780	336	29.055247978616
504	43781	337	29.709338098258
504	43782	338	28.830256787554
504	43783	339	29.151134296338
504	43784	340	29.284500460856
504	43785	341	29.755021635577
504	43786	342	29.82539397963
504	43787	343	29.416283583635
504	43788	344	29.870122837968
504	43789	345	30.005833899561
504	43790	346	29.890772991424
504	43791	347	29.35356388982
504	43792	348	29.555238577962
504	43793	349	29.17506354432
504	43794	350	29.997516671795
504	43795	351	29.351717816683
504	43796	352	28.881808725494
504	43797	353	29.04803817721
504	43798	354	29.18991342049
504	43799	355	29.051259649353
504	43800	356	29.722662367643
504	43801	357	28.836223300098
504	43802	358	28.808816566382
504	43803	359	29.917378118046
499	36724	190	26.65
499	36934	191	26.65
499	37144	192	26.65
499	37354	193	26.65
499	37564	194	26.65
499	37774	195	29.95
499	37982	196	29.95
499	38190	197	29.95
499	38394	198	29.95
499	38598	199	29.95
499	38800	200	29.95
499	38996	201	29.95
499	39190	202	29.95
499	39384	203	29.95
499	39578	204	29.95
499	39772	205	29.95
499	39966	206	29.95
499	40160	207	29.95
499	40354	208	29.95
499	40548	209	29.95
499	40742	210	29.95
499	40934	211	29.95
499	41126	212	29.95
499	41314	213	29.95
499	41500	214	29.95
499	41686	215	29.95
499	41872	216	29.95
499	42058	217	29.95
499	42244	218	29.95
499	42426	219	29.95
499	42608	220	29.95
499	42790	221	29.95
499	42966	222	29.95
499	43142	223	29.95
499	43318	224	29.95
499	43494	225	29.95
499	43670	226	29.95
499	43671	227	29.95
499	43672	228	29.95
499	43673	229	29.95
499	43674	230	29.95
499	43675	231	29.95
499	43676	232	29.95
499	43677	233	29.95
499	43678	234	29.95
499	43679	235	29.95
499	43680	236	29.95
499	43681	237	29.95
499	43682	238	29.95
499	43683	239	29.95
499	43684	240	29.95
499	43685	241	29.95
499	43686	242	29.95
499	43687	243	29.95
499	43688	244	29.95
499	43689	245	29.95
499	43690	246	29.95
499	43691	247	29.95
499	43692	248	29.95
499	43693	249	29.95
499	43694	250	29.95
499	43695	251	29.95
499	43696	252	29.95
499	43697	253	29.95
499	43698	254	29.95
499	43699	255	29.95
499	43700	256	29.95
499	43701	257	29.95
499	43702	258	29.95
499	43703	259	29.95
499	43704	260	29.95
499	43705	261	29.95
499	43706	262	29.95
499	43707	263	29.95
499	43708	264	29.95
499	43709	265	29.95
499	43710	266	29.95
499	43711	267	29.95
499	43712	268	29.95
499	43713	269	29.95
499	43714	270	29.95
499	43715	271	29.95
499	43716	272	29.95
499	43717	273	29.95
499	43718	274	29.95
499	43719	275	29.95
499	43720	276	29.95
499	43721	277	29.95
499	43722	278	29.95
499	43723	279	29.95
499	43724	280	29.95
499	43725	281	29.95
499	43726	282	29.95
499	43727	283	29.95
499	43728	284	29.95
499	43729	285	29.95
499	43730	286	29.95
499	43731	287	29.95
499	43732	288	29.95
499	43733	289	29.95
499	43734	290	29.95
499	43735	291	29.95
499	43736	292	29.95
499	43737	293	29.95
499	43738	294	29.95
499	43739	295	29.95
499	43740	296	29.95
499	43741	297	29.95
499	43742	298	29.95
499	43743	299	29.95
499	43744	300	29.95
499	43745	301	29.95
499	43746	302	29.95
499	43747	303	29.95
499	43748	304	29.95
499	43749	305	29.95
499	43750	306	29.95
499	43751	307	29.95
499	43752	308	29.95
499	43753	309	29.95
499	43754	310	29.95
499	43755	311	29.95
499	43756	312	29.95
499	43757	313	29.95
499	43758	314	29.95
499	43759	315	29.95
499	43760	316	29.95
499	43761	317	29.95
499	43762	318	29.95
499	43763	319	29.95
499	43764	320	29.95
499	43765	321	29.95
499	43766	322	29.95
499	43767	323	29.95
499	43768	324	29.95
499	43769	325	29.95
499	43770	326	29.95
499	43771	327	29.95
499	43772	328	29.95
499	43773	329	29.95
499	43774	330	29.95
499	43775	331	29.95
499	43776	332	29.95
499	43777	333	29.95
499	43778	334	29.95
499	43779	335	29.95
499	43780	336	29.95
499	43781	337	29.95
499	43782	338	29.95
499	43783	339	29.95
499	43784	340	29.95
499	43785	341	29.95
499	43786	342	29.95
499	43787	343	29.95
499	43788	344	29.95
499	43789	345	29.95
499	43790	346	29.95
499	43791	347	29.95
499	43792	348	29.95
499	43793	349	29.95
499	43794	350	29.95
499	43795	351	29.95
499	43796	352	29.95
499	43797	353	29.95
499	43798	354	29.95
499	43799	355	29.95
499	43800	356	29.95
499	43801	357	29.95
499	43802	358	29.95
499	43803	359	29.95
498	36724	190	30.1
498	36934	191	30.1
498	37144	192	59.589413813356
498	37354	193	89.286232361104
498	37564	194	118.57605794254
498	37774	195	147.74990000812
498	37982	196	176.62839668453
498	38190	197	205.65449231922
498	38394	198	235.03689443009
498	38598	199	264.21812451583
498	38800	200	293.42481390457
498	38996	201	323.2061251536
498	39190	202	352.92805121645
498	39384	203	382.49047090264
498	39578	204	412.21623610678
498	39772	205	441.11030707669
498	39966	206	470.13975122466
498	40160	207	499.97718902358
498	40354	208	529.37401685779
498	40548	209	559.35905458416
498	40742	210	588.48209603184
498	40934	211	617.86146719412
498	41126	212	646.98306474722
498	41314	213	675.88469670107
498	41500	214	704.90096288665
498	41686	215	733.81366489656
498	41872	216	762.88441337505
498	42058	217	792.84284206673
498	42244	218	821.74217968443
498	42426	219	851.54490424872
498	42608	220	881.09377163236
498	42790	221	910.66452424987
498	42966	222	940.10953663375
498	43142	223	969.25773791939
498	43318	224	998.44572609763
498	43494	225	1027.5416229754
498	43670	226	1056.4812046222
498	43671	227	1085.998534727
498	43672	228	1115.8505406892
498	43673	229	1144.7297788209
498	43674	230	1174.7646425955
498	43675	231	1203.5605556122
498	43676	232	1233.490367056
498	43677	233	1263.3087816347
498	43678	234	1293.0577466404
498	43679	235	1322.1151286378
498	43680	236	1351.3188157336
498	43681	237	1380.3044846935
498	43682	238	1410.0750608538
498	43683	239	1439.8342736732
498	43684	240	1469.3590655464
498	43685	241	1498.6771612049
498	43686	242	1528.4895374527
498	43687	243	1557.977287462
498	43688	244	1586.8185676737
498	43689	245	1616.6094183543
498	43690	246	1645.7001779071
498	43691	247	1675.3836595413
498	43692	248	1704.4635891072
498	43693	249	1733.6512220315
498	43694	250	1763.1212689742
498	43695	251	1792.9524939505
498	43696	252	1821.9648250802
498	43697	253	1851.9178205032
498	43698	254	1881.4343242525
498	43699	255	1910.269691478
498	43700	256	1940.0881431998
498	43701	257	1969.6236496625
498	43702	258	1999.5721445861
498	43703	259	2029.3086033295
498	43704	260	2058.8629479239
498	43705	261	2088.5880562308
498	43706	262	2117.9726373923
498	43707	263	2147.7441878065
498	43708	264	2176.8067811222
498	43709	265	2206.1283786504
498	43710	266	2235.5559910645
498	43711	267	2264.5713615174
498	43712	268	2293.6668219926
498	43713	269	2323.6921231332
498	43714	270	2353.5679240915
498	43715	271	2382.4783961948
498	43716	272	2411.3498671823
498	43717	273	2440.9501646575
498	43718	274	2470.9196148089
498	43719	275	2500.0091930381
498	43720	276	2529.9307264989
498	43721	277	2559.8253962025
498	43722	278	2589.2117796327
498	43723	279	2618.1982148874
498	43724	280	2647.1969267542
498	43725	281	2676.7261158669
498	43726	282	2706.6196863357
498	43727	283	2735.6592748441
498	43728	284	2765.087423468
498	43729	285	2794.6119424002
498	43730	286	2823.7107084308
498	43731	287	2853.4872246628
498	43732	288	2882.3780670834
498	43733	289	2911.546390169
498	43734	290	2940.7492044456
498	43735	291	2969.8241943807
498	43736	292	2999.0790299725
498	43737	293	3028.4583981283
498	43738	294	3057.5227676732
498	43739	295	3086.4033048261
498	43740	296	3115.6082785289
498	43741	297	3145.4132715727
498	43742	298	3174.3241717624
498	43743	299	3203.9184871548
498	43744	300	3233.2001844188
498	43745	301	3262.6855428355
498	43746	302	3292.5376386281
498	43747	303	3321.482248769
498	43748	304	3350.6928081249
498	43749	305	3380.5338476817
498	43750	306	3409.43319386
498	43751	307	3438.4119800833
498	43752	308	3467.2687097412
498	43753	309	3496.9928466486
498	43754	310	3526.8438729864
498	43755	311	3555.944466365
498	43756	312	3585.5236443988
498	43757	313	3615.0154550008
498	43758	314	3644.2464063723
498	43759	315	3674.1505502539
498	43760	316	3702.9641162296
498	43761	317	3732.6904191872
498	43762	318	3762.6246106234
498	43763	319	3791.9907140557
498	43764	320	3821.8266973319
498	43765	321	3851.4541469463
498	43766	322	3880.6106852949
498	43767	323	3910.1504558092
498	43768	324	3939.482424378
498	43769	325	3969.3805810927
498	43770	326	3998.4691277338
498	43771	327	4027.9634562664
498	43772	328	4057.9144517458
498	43773	329	4086.9844455419
498	43774	330	4116.2354350567
498	43775	331	4145.2471981637
498	43776	332	4175.2423899907
498	43777	333	4204.4030462312
498	43778	334	4234.3779485879
498	43779	335	4264.1045602638
498	43780	336	4293.0251490483
498	43781	337	4322.0803970269
498	43782	338	4351.7897351252
498	43783	339	4380.6199919127
498	43784	340	4409.771126209
498	43785	341	4439.0556266699
498	43786	342	4468.8106483055
498	43787	343	4498.6360422851
498	43788	344	4528.0523258687
498	43789	345	4557.9224487067
498	43790	346	4587.9282826063
498	43791	347	4617.8190555977
498	43792	348	4647.1726194875
498	43793	349	4676.7278580655
498	43794	350	4705.9029216098
498	43795	351	4735.9004382816
498	43796	352	4765.2521560983
498	43797	353	4794.1339648238
498	43798	354	4823.182003001
498	43799	355	4852.3719164215
498	43800	356	4881.4231760708
498	43801	357	4911.1458384385
498	43802	358	4939.9820617386
498	43803	359	4968.7908783049

