version 2
run Scenario1-0-20180428-20:59:52-14600
attr configname Scenario1
attr datetime 20180428-20:59:52
attr experiment Scenario1
attr inifile omnetpp.ini
attr iterationvars ""
attr iterationvarsf ""
attr measurement ""
attr network HighwayScenario1
attr processid 14600
attr repetition 0
attr replication #0
attr resultdir results
attr runnumber 0
attr seedset 0
param *.ambulanceNode[*].applType "\"AmbulanceAppLayer\""
param *.ambulanceNode[*].appl.messageLength 58
param *.attackerNode[*].applType "\"AttackerAppLayer\""
param *.node[*].applType "\"NormalAppLayer\""
param *.node[*].appl.headerLength "80 bit"
param *.node[*].appl.sendBeacons false
param *.node[*].appl.dataOnSch false
param **.debug false
param **.coreDebug false
param *.playgroundSizeX 5500m
param *.playgroundSizeY 500m
param *.playgroundSizeZ 50m
param *.annotations.draw false
param *.obstacles.debug false
param *.manager.updateInterval 1s
param *.manager.host "\"localhost\""
param *.manager.port 9999
param *.manager.autoShutdown true
param *.manager.launchConfig "xmldoc(\"highway.launchd.xml\")"
param *.connectionManager.sendDirect true
param *.connectionManager.maxInterfDist 2600m
param *.connectionManager.drawMaxIntfDist false
param *.**.nic.mac1609_4.useServiceChannel false
param *.**.nic.mac1609_4.txPower 20mW
param *.**.nic.mac1609_4.bitrate 6Mbps
param *.**.nic.phy80211p.sensitivity -89dBm
param *.**.nic.phy80211p.useThermalNoise true
param *.**.nic.phy80211p.thermalNoise -110dBm
param *.**.nic.phy80211p.decider "xmldoc(\"config.xml\")"
param *.**.nic.phy80211p.analogueModels "xmldoc(\"config.xml\")"
param *.**.nic.phy80211p.usePropagationDelay true
param *.**.nic.phy80211p.antenna "xmldoc(\"antenna.xml\", \"/root/Antenna[@id='monopole']\")"
param *.manager.moduleType "\"ambulance=org.car2x.veins.nodes.Car attacker=org.car2x.veins.nodes.Car *=org.car2x.veins.nodes.Car\""
param *.manager.moduleName "\"ambulance=ambulanceNode attacker=attackerNode *=node\""
param *.node[*].veinsmobilityType.debug true
param *.node[*].veinsmobility.x 0
param *.node[*].veinsmobility.y 0
param *.node[*].veinsmobility.z 1.895
param *.ambulanceNode[*].veinsmobilityType.debug true
param *.ambulanceNode[*].veinsmobility.x 0
param *.ambulanceNode[*].veinsmobility.y 0
param *.ambulanceNode[*].veinsmobility.z 1.895
param *.attackerNode[*].veinsmobilityType.debug true
param *.attackerNode[*].veinsmobility.x 0
param *.attackerNode[*].veinsmobility.y 0
param *.attackerNode[*].veinsmobility.z 1.895

scalar HighwayScenario1.attackerNode[11].appl generatedWSMs 100
scalar HighwayScenario1.attackerNode[11].appl receivedWSMs 101
scalar HighwayScenario1.attackerNode[11].appl generatedBSMs 1
scalar HighwayScenario1.attackerNode[11].appl receivedBSMs 0
scalar HighwayScenario1.attackerNode[11].appl generatedWSAs 0
scalar HighwayScenario1.attackerNode[11].appl receivedWSAs 0
scalar HighwayScenario1.attackerNode[11].nic.phy80211p busyTime 0.000128
scalar HighwayScenario1.attackerNode[11].nic.mac1609_4 ReceivedUnicastPackets 0
scalar HighwayScenario1.attackerNode[11].nic.mac1609_4 ReceivedBroadcasts 101
scalar HighwayScenario1.attackerNode[11].nic.mac1609_4 SentPackets 101
scalar HighwayScenario1.attackerNode[11].nic.mac1609_4 SNIRLostPackets 0
scalar HighwayScenario1.attackerNode[11].nic.mac1609_4 RXTXLostPackets 0
scalar HighwayScenario1.attackerNode[11].nic.mac1609_4 TotalLostPackets 0
scalar HighwayScenario1.attackerNode[11].nic.mac1609_4 DroppedPacketsInMac 0
scalar HighwayScenario1.attackerNode[11].nic.mac1609_4 TooLittleTime 0
scalar HighwayScenario1.attackerNode[11].nic.mac1609_4 TimesIntoBackoff 101
scalar HighwayScenario1.attackerNode[11].nic.mac1609_4 SlotsBackoff 138
scalar HighwayScenario1.attackerNode[11].nic.mac1609_4 NumInternalContention 0
scalar HighwayScenario1.attackerNode[11].nic.mac1609_4 totalBusyTime 0.025933
scalar HighwayScenario1.attackerNode[11].veinsmobility startTime 24
scalar HighwayScenario1.attackerNode[11].veinsmobility totalTime 100
scalar HighwayScenario1.attackerNode[11].veinsmobility stopTime 125
scalar HighwayScenario1.attackerNode[11].veinsmobility minSpeed 1.422329598633
scalar HighwayScenario1.attackerNode[11].veinsmobility maxSpeed 59.660106301079
scalar HighwayScenario1.attackerNode[11].veinsmobility totalDistance 4983.92083281
scalar HighwayScenario1.attackerNode[11].veinsmobility totalCO2Emission 2666.9568241075
scalar HighwayScenario1.ambulanceNode[8].appl generatedWSMs 109
scalar HighwayScenario1.ambulanceNode[8].appl receivedWSMs 100
scalar HighwayScenario1.ambulanceNode[8].appl generatedBSMs 0
scalar HighwayScenario1.ambulanceNode[8].appl receivedBSMs 1
scalar HighwayScenario1.ambulanceNode[8].appl generatedWSAs 0
scalar HighwayScenario1.ambulanceNode[8].appl receivedWSAs 0
scalar HighwayScenario1.ambulanceNode[8].nic.phy80211p busyTime 0.00011838532110092
scalar HighwayScenario1.ambulanceNode[8].nic.mac1609_4 ReceivedUnicastPackets 0
scalar HighwayScenario1.ambulanceNode[8].nic.mac1609_4 ReceivedBroadcasts 101
scalar HighwayScenario1.ambulanceNode[8].nic.mac1609_4 SentPackets 109
scalar HighwayScenario1.ambulanceNode[8].nic.mac1609_4 SNIRLostPackets 0
scalar HighwayScenario1.ambulanceNode[8].nic.mac1609_4 RXTXLostPackets 0
scalar HighwayScenario1.ambulanceNode[8].nic.mac1609_4 TotalLostPackets 0
scalar HighwayScenario1.ambulanceNode[8].nic.mac1609_4 DroppedPacketsInMac 0
scalar HighwayScenario1.ambulanceNode[8].nic.mac1609_4 TooLittleTime 0
scalar HighwayScenario1.ambulanceNode[8].nic.mac1609_4 TimesIntoBackoff 109
scalar HighwayScenario1.ambulanceNode[8].nic.mac1609_4 SlotsBackoff 174
scalar HighwayScenario1.ambulanceNode[8].nic.mac1609_4 NumInternalContention 0
scalar HighwayScenario1.ambulanceNode[8].nic.mac1609_4 totalBusyTime 0.026965
scalar HighwayScenario1.ambulanceNode[8].veinsmobility startTime 21
scalar HighwayScenario1.ambulanceNode[8].veinsmobility totalTime 108
scalar HighwayScenario1.ambulanceNode[8].veinsmobility stopTime 130
scalar HighwayScenario1.ambulanceNode[8].veinsmobility minSpeed 26.272369076207
scalar HighwayScenario1.ambulanceNode[8].veinsmobility maxSpeed 49.97864131676
scalar HighwayScenario1.ambulanceNode[8].veinsmobility totalDistance 4983.605061084
scalar HighwayScenario1.ambulanceNode[8].veinsmobility totalCO2Emission 1720.3073094789
scalar HighwayScenario1.node[15].appl generatedWSMs 0
scalar HighwayScenario1.node[15].appl receivedWSMs 10
scalar HighwayScenario1.node[15].appl generatedBSMs 0
scalar HighwayScenario1.node[15].appl receivedBSMs 0
scalar HighwayScenario1.node[15].appl generatedWSAs 0
scalar HighwayScenario1.node[15].appl receivedWSAs 0
scalar HighwayScenario1.node[15].appl delayBSM_P1 0
scalar HighwayScenario1.node[15].appl delayBSM_P2 7.7731385977741
scalar HighwayScenario1.node[15].nic.phy80211p busyTime 8.0503144654088e-006
scalar HighwayScenario1.node[15].nic.mac1609_4 ReceivedUnicastPackets 0
scalar HighwayScenario1.node[15].nic.mac1609_4 ReceivedBroadcasts 10
scalar HighwayScenario1.node[15].nic.mac1609_4 SentPackets 0
scalar HighwayScenario1.node[15].nic.mac1609_4 SNIRLostPackets 0
scalar HighwayScenario1.node[15].nic.mac1609_4 RXTXLostPackets 0
scalar HighwayScenario1.node[15].nic.mac1609_4 TotalLostPackets 0
scalar HighwayScenario1.node[15].nic.mac1609_4 DroppedPacketsInMac 0
scalar HighwayScenario1.node[15].nic.mac1609_4 TooLittleTime 0
scalar HighwayScenario1.node[15].nic.mac1609_4 TimesIntoBackoff 0
scalar HighwayScenario1.node[15].nic.mac1609_4 SlotsBackoff 0
scalar HighwayScenario1.node[15].nic.mac1609_4 NumInternalContention 0
scalar HighwayScenario1.node[15].nic.mac1609_4 totalBusyTime 0.00128
scalar HighwayScenario1.node[15].veinsmobility startTime 37
scalar HighwayScenario1.node[15].veinsmobility totalTime 158
scalar HighwayScenario1.node[15].veinsmobility stopTime 196
scalar HighwayScenario1.node[15].veinsmobility minSpeed 30.789579066346
scalar HighwayScenario1.node[15].veinsmobility maxSpeed 32.032235425737
scalar HighwayScenario1.node[15].veinsmobility totalDistance 4965.9649466564
scalar HighwayScenario1.node[15].veinsmobility totalCO2Emission 882.26097916427
scalar HighwayScenario1.node[16].appl generatedWSMs 0
scalar HighwayScenario1.node[16].appl receivedWSMs 7
scalar HighwayScenario1.node[16].appl generatedBSMs 0
scalar HighwayScenario1.node[16].appl receivedBSMs 0
scalar HighwayScenario1.node[16].appl generatedWSAs 0
scalar HighwayScenario1.node[16].appl receivedWSAs 0
scalar HighwayScenario1.node[16].appl delayBSM_P1 0
scalar HighwayScenario1.node[16].appl delayBSM_P2 8.4302818019793
scalar HighwayScenario1.node[16].nic.phy80211p busyTime 5.6352201257862e-006
scalar HighwayScenario1.node[16].nic.mac1609_4 ReceivedUnicastPackets 0
scalar HighwayScenario1.node[16].nic.mac1609_4 ReceivedBroadcasts 7
scalar HighwayScenario1.node[16].nic.mac1609_4 SentPackets 0
scalar HighwayScenario1.node[16].nic.mac1609_4 SNIRLostPackets 0
scalar HighwayScenario1.node[16].nic.mac1609_4 RXTXLostPackets 0
scalar HighwayScenario1.node[16].nic.mac1609_4 TotalLostPackets 0
scalar HighwayScenario1.node[16].nic.mac1609_4 DroppedPacketsInMac 0
scalar HighwayScenario1.node[16].nic.mac1609_4 TooLittleTime 0
scalar HighwayScenario1.node[16].nic.mac1609_4 TimesIntoBackoff 0
scalar HighwayScenario1.node[16].nic.mac1609_4 SlotsBackoff 0
scalar HighwayScenario1.node[16].nic.mac1609_4 NumInternalContention 0
scalar HighwayScenario1.node[16].nic.mac1609_4 totalBusyTime 0.000896
scalar HighwayScenario1.node[16].veinsmobility startTime 38
scalar HighwayScenario1.node[16].veinsmobility totalTime 158
scalar HighwayScenario1.node[16].veinsmobility stopTime 197
scalar HighwayScenario1.node[16].veinsmobility minSpeed 29.321792833931
scalar HighwayScenario1.node[16].veinsmobility maxSpeed 32.235503045396
scalar HighwayScenario1.node[16].veinsmobility totalDistance 4973.9998991234
scalar HighwayScenario1.node[16].veinsmobility totalCO2Emission 923.7906117762
scalar HighwayScenario1.node[19].appl generatedWSMs 0
scalar HighwayScenario1.node[19].appl receivedWSMs 1
scalar HighwayScenario1.node[19].appl generatedBSMs 0
scalar HighwayScenario1.node[19].appl receivedBSMs 0
scalar HighwayScenario1.node[19].appl generatedWSAs 0
scalar HighwayScenario1.node[19].appl receivedWSAs 0
scalar HighwayScenario1.node[19].appl delayBSM_P1 0
scalar HighwayScenario1.node[19].appl delayBSM_P2 8.573133824767
scalar HighwayScenario1.node[19].nic.phy80211p busyTime 8.1528662420382e-007
scalar HighwayScenario1.node[19].nic.mac1609_4 ReceivedUnicastPackets 0
scalar HighwayScenario1.node[19].nic.mac1609_4 ReceivedBroadcasts 1
scalar HighwayScenario1.node[19].nic.mac1609_4 SentPackets 0
scalar HighwayScenario1.node[19].nic.mac1609_4 SNIRLostPackets 0
scalar HighwayScenario1.node[19].nic.mac1609_4 RXTXLostPackets 0
scalar HighwayScenario1.node[19].nic.mac1609_4 TotalLostPackets 0
scalar HighwayScenario1.node[19].nic.mac1609_4 DroppedPacketsInMac 0
scalar HighwayScenario1.node[19].nic.mac1609_4 TooLittleTime 0
scalar HighwayScenario1.node[19].nic.mac1609_4 TimesIntoBackoff 0
scalar HighwayScenario1.node[19].nic.mac1609_4 SlotsBackoff 0
scalar HighwayScenario1.node[19].nic.mac1609_4 NumInternalContention 0
scalar HighwayScenario1.node[19].nic.mac1609_4 totalBusyTime 0.000128
scalar HighwayScenario1.node[19].veinsmobility startTime 41
scalar HighwayScenario1.node[19].veinsmobility totalTime 156
scalar HighwayScenario1.node[19].veinsmobility stopTime 198
scalar HighwayScenario1.node[19].veinsmobility minSpeed 22.785758655388
scalar HighwayScenario1.node[19].veinsmobility maxSpeed 34.917057073973
scalar HighwayScenario1.node[19].veinsmobility totalDistance 4962.2593229905
scalar HighwayScenario1.node[19].veinsmobility totalCO2Emission 1098.5494960293
scalar HighwayScenario1.node[17].appl generatedWSMs 0
scalar HighwayScenario1.node[17].appl receivedWSMs 5
scalar HighwayScenario1.node[17].appl generatedBSMs 0
scalar HighwayScenario1.node[17].appl receivedBSMs 0
scalar HighwayScenario1.node[17].appl generatedWSAs 0
scalar HighwayScenario1.node[17].appl receivedWSAs 0
scalar HighwayScenario1.node[17].appl delayBSM_P1 0
scalar HighwayScenario1.node[17].appl delayBSM_P2 8.5731387609292
scalar HighwayScenario1.node[17].nic.phy80211p busyTime 4.0251572327044e-006
scalar HighwayScenario1.node[17].nic.mac1609_4 ReceivedUnicastPackets 0
scalar HighwayScenario1.node[17].nic.mac1609_4 ReceivedBroadcasts 5
scalar HighwayScenario1.node[17].nic.mac1609_4 SentPackets 0
scalar HighwayScenario1.node[17].nic.mac1609_4 SNIRLostPackets 0
scalar HighwayScenario1.node[17].nic.mac1609_4 RXTXLostPackets 0
scalar HighwayScenario1.node[17].nic.mac1609_4 TotalLostPackets 0
scalar HighwayScenario1.node[17].nic.mac1609_4 DroppedPacketsInMac 0
scalar HighwayScenario1.node[17].nic.mac1609_4 TooLittleTime 0
scalar HighwayScenario1.node[17].nic.mac1609_4 TimesIntoBackoff 0
scalar HighwayScenario1.node[17].nic.mac1609_4 SlotsBackoff 0
scalar HighwayScenario1.node[17].nic.mac1609_4 NumInternalContention 0
scalar HighwayScenario1.node[17].nic.mac1609_4 totalBusyTime 0.00064
scalar HighwayScenario1.node[17].veinsmobility startTime 39
scalar HighwayScenario1.node[17].veinsmobility totalTime 158
scalar HighwayScenario1.node[17].veinsmobility stopTime 198
scalar HighwayScenario1.node[17].veinsmobility minSpeed 27.766432255487
scalar HighwayScenario1.node[17].veinsmobility maxSpeed 33.70128919128
scalar HighwayScenario1.node[17].veinsmobility totalDistance 4970.060795868
scalar HighwayScenario1.node[17].veinsmobility totalCO2Emission 1052.7175749928
scalar HighwayScenario1.node[18].appl generatedWSMs 0
scalar HighwayScenario1.node[18].appl receivedWSMs 3
scalar HighwayScenario1.node[18].appl generatedBSMs 0
scalar HighwayScenario1.node[18].appl receivedBSMs 0
scalar HighwayScenario1.node[18].appl generatedWSAs 0
scalar HighwayScenario1.node[18].appl receivedWSAs 0
scalar HighwayScenario1.node[18].appl delayBSM_P1 0
scalar HighwayScenario1.node[18].appl delayBSM_P2 8.5731380474153
scalar HighwayScenario1.node[18].nic.phy80211p busyTime 2.4e-006
scalar HighwayScenario1.node[18].nic.mac1609_4 ReceivedUnicastPackets 0
scalar HighwayScenario1.node[18].nic.mac1609_4 ReceivedBroadcasts 3
scalar HighwayScenario1.node[18].nic.mac1609_4 SentPackets 0
scalar HighwayScenario1.node[18].nic.mac1609_4 SNIRLostPackets 0
scalar HighwayScenario1.node[18].nic.mac1609_4 RXTXLostPackets 0
scalar HighwayScenario1.node[18].nic.mac1609_4 TotalLostPackets 0
scalar HighwayScenario1.node[18].nic.mac1609_4 DroppedPacketsInMac 0
scalar HighwayScenario1.node[18].nic.mac1609_4 TooLittleTime 0
scalar HighwayScenario1.node[18].nic.mac1609_4 TimesIntoBackoff 0
scalar HighwayScenario1.node[18].nic.mac1609_4 SlotsBackoff 0
scalar HighwayScenario1.node[18].nic.mac1609_4 NumInternalContention 0
scalar HighwayScenario1.node[18].nic.mac1609_4 totalBusyTime 0.000384
scalar HighwayScenario1.node[18].veinsmobility startTime 40
scalar HighwayScenario1.node[18].veinsmobility totalTime 159
scalar HighwayScenario1.node[18].veinsmobility stopTime 200
scalar HighwayScenario1.node[18].veinsmobility minSpeed 25.169646523914
scalar HighwayScenario1.node[18].veinsmobility maxSpeed 34.453618961365
scalar HighwayScenario1.node[18].veinsmobility totalDistance 4989.7764599461
scalar HighwayScenario1.node[18].veinsmobility totalCO2Emission 1418.8795511105
scalar HighwayScenario1.node[21].appl generatedWSMs 0
scalar HighwayScenario1.node[21].appl receivedWSMs 0
scalar HighwayScenario1.node[21].appl generatedBSMs 0
scalar HighwayScenario1.node[21].appl receivedBSMs 0
scalar HighwayScenario1.node[21].appl generatedWSAs 0
scalar HighwayScenario1.node[21].appl receivedWSAs 0
scalar HighwayScenario1.node[21].appl delayBSM_P1 0
scalar HighwayScenario1.node[21].appl delayBSM_P2 0
scalar HighwayScenario1.node[21].nic.phy80211p busyTime 0
scalar HighwayScenario1.node[21].nic.mac1609_4 ReceivedUnicastPackets 0
scalar HighwayScenario1.node[21].nic.mac1609_4 ReceivedBroadcasts 0
scalar HighwayScenario1.node[21].nic.mac1609_4 SentPackets 0
scalar HighwayScenario1.node[21].nic.mac1609_4 SNIRLostPackets 0
scalar HighwayScenario1.node[21].nic.mac1609_4 RXTXLostPackets 0
scalar HighwayScenario1.node[21].nic.mac1609_4 TotalLostPackets 0
scalar HighwayScenario1.node[21].nic.mac1609_4 DroppedPacketsInMac 0
scalar HighwayScenario1.node[21].nic.mac1609_4 TooLittleTime 0
scalar HighwayScenario1.node[21].nic.mac1609_4 TimesIntoBackoff 0
scalar HighwayScenario1.node[21].nic.mac1609_4 SlotsBackoff 0
scalar HighwayScenario1.node[21].nic.mac1609_4 NumInternalContention 0
scalar HighwayScenario1.node[21].nic.mac1609_4 totalBusyTime 0
scalar HighwayScenario1.node[21].veinsmobility startTime 43
scalar HighwayScenario1.node[21].veinsmobility totalTime 166
scalar HighwayScenario1.node[21].veinsmobility stopTime 210
scalar HighwayScenario1.node[21].veinsmobility minSpeed 16.158995202663
scalar HighwayScenario1.node[21].veinsmobility maxSpeed 33.496823918109
scalar HighwayScenario1.node[21].veinsmobility totalDistance 4978.3397747311
scalar HighwayScenario1.node[21].veinsmobility totalCO2Emission 1016.1125256464
scalar HighwayScenario1.node[23].appl generatedWSMs 0
scalar HighwayScenario1.node[23].appl receivedWSMs 0
scalar HighwayScenario1.node[23].appl generatedBSMs 0
scalar HighwayScenario1.node[23].appl receivedBSMs 0
scalar HighwayScenario1.node[23].appl generatedWSAs 0
scalar HighwayScenario1.node[23].appl receivedWSAs 0
scalar HighwayScenario1.node[23].appl delayBSM_P1 0
scalar HighwayScenario1.node[23].appl delayBSM_P2 0
scalar HighwayScenario1.node[23].nic.phy80211p busyTime 0
scalar HighwayScenario1.node[23].nic.mac1609_4 ReceivedUnicastPackets 0
scalar HighwayScenario1.node[23].nic.mac1609_4 ReceivedBroadcasts 0
scalar HighwayScenario1.node[23].nic.mac1609_4 SentPackets 0
scalar HighwayScenario1.node[23].nic.mac1609_4 SNIRLostPackets 0
scalar HighwayScenario1.node[23].nic.mac1609_4 RXTXLostPackets 0
scalar HighwayScenario1.node[23].nic.mac1609_4 TotalLostPackets 0
scalar HighwayScenario1.node[23].nic.mac1609_4 DroppedPacketsInMac 0
scalar HighwayScenario1.node[23].nic.mac1609_4 TooLittleTime 0
scalar HighwayScenario1.node[23].nic.mac1609_4 TimesIntoBackoff 0
scalar HighwayScenario1.node[23].nic.mac1609_4 SlotsBackoff 0
scalar HighwayScenario1.node[23].nic.mac1609_4 NumInternalContention 0
scalar HighwayScenario1.node[23].nic.mac1609_4 totalBusyTime 0
scalar HighwayScenario1.node[23].veinsmobility startTime 45
scalar HighwayScenario1.node[23].veinsmobility totalTime 174
scalar HighwayScenario1.node[23].veinsmobility stopTime 220
scalar HighwayScenario1.node[23].veinsmobility minSpeed 7.4586328755699
scalar HighwayScenario1.node[23].veinsmobility maxSpeed 31.135917361067
scalar HighwayScenario1.node[23].veinsmobility totalDistance 4974.6893553001
scalar HighwayScenario1.node[23].veinsmobility totalCO2Emission 1049.856837241
scalar HighwayScenario1.node[22].appl generatedWSMs 0
scalar HighwayScenario1.node[22].appl receivedWSMs 0
scalar HighwayScenario1.node[22].appl generatedBSMs 0
scalar HighwayScenario1.node[22].appl receivedBSMs 0
scalar HighwayScenario1.node[22].appl generatedWSAs 0
scalar HighwayScenario1.node[22].appl receivedWSAs 0
scalar HighwayScenario1.node[22].appl delayBSM_P1 0
scalar HighwayScenario1.node[22].appl delayBSM_P2 0
scalar HighwayScenario1.node[22].nic.phy80211p busyTime 0
scalar HighwayScenario1.node[22].nic.mac1609_4 ReceivedUnicastPackets 0
scalar HighwayScenario1.node[22].nic.mac1609_4 ReceivedBroadcasts 0
scalar HighwayScenario1.node[22].nic.mac1609_4 SentPackets 0
scalar HighwayScenario1.node[22].nic.mac1609_4 SNIRLostPackets 0
scalar HighwayScenario1.node[22].nic.mac1609_4 RXTXLostPackets 0
scalar HighwayScenario1.node[22].nic.mac1609_4 TotalLostPackets 0
scalar HighwayScenario1.node[22].nic.mac1609_4 DroppedPacketsInMac 0
scalar HighwayScenario1.node[22].nic.mac1609_4 TooLittleTime 0
scalar HighwayScenario1.node[22].nic.mac1609_4 TimesIntoBackoff 0
scalar HighwayScenario1.node[22].nic.mac1609_4 SlotsBackoff 0
scalar HighwayScenario1.node[22].nic.mac1609_4 NumInternalContention 0
scalar HighwayScenario1.node[22].nic.mac1609_4 totalBusyTime 0
scalar HighwayScenario1.node[22].veinsmobility startTime 44
scalar HighwayScenario1.node[22].veinsmobility totalTime 175
scalar HighwayScenario1.node[22].veinsmobility stopTime 220
scalar HighwayScenario1.node[22].veinsmobility minSpeed 12.2186082068
scalar HighwayScenario1.node[22].veinsmobility maxSpeed 30.468476976311
scalar HighwayScenario1.node[22].veinsmobility totalDistance 4973.6260006419
scalar HighwayScenario1.node[22].veinsmobility totalCO2Emission 1008.280057736
scalar HighwayScenario1.node[28].appl generatedWSMs 0
scalar HighwayScenario1.node[28].appl receivedWSMs 0
scalar HighwayScenario1.node[28].appl generatedBSMs 0
scalar HighwayScenario1.node[28].appl receivedBSMs 0
scalar HighwayScenario1.node[28].appl generatedWSAs 0
scalar HighwayScenario1.node[28].appl receivedWSAs 0
scalar HighwayScenario1.node[28].appl delayBSM_P1 0
scalar HighwayScenario1.node[28].appl delayBSM_P2 0
scalar HighwayScenario1.node[28].nic.phy80211p busyTime 0
scalar HighwayScenario1.node[28].nic.mac1609_4 ReceivedUnicastPackets 0
scalar HighwayScenario1.node[28].nic.mac1609_4 ReceivedBroadcasts 0
scalar HighwayScenario1.node[28].nic.mac1609_4 SentPackets 0
scalar HighwayScenario1.node[28].nic.mac1609_4 SNIRLostPackets 0
scalar HighwayScenario1.node[28].nic.mac1609_4 RXTXLostPackets 0
scalar HighwayScenario1.node[28].nic.mac1609_4 TotalLostPackets 0
scalar HighwayScenario1.node[28].nic.mac1609_4 DroppedPacketsInMac 0
scalar HighwayScenario1.node[28].nic.mac1609_4 TooLittleTime 0
scalar HighwayScenario1.node[28].nic.mac1609_4 TimesIntoBackoff 0
scalar HighwayScenario1.node[28].nic.mac1609_4 SlotsBackoff 0
scalar HighwayScenario1.node[28].nic.mac1609_4 NumInternalContention 0
scalar HighwayScenario1.node[28].nic.mac1609_4 totalBusyTime 0
scalar HighwayScenario1.node[28].veinsmobility startTime 53
scalar HighwayScenario1.node[28].veinsmobility totalTime 167
scalar HighwayScenario1.node[28].veinsmobility stopTime 221
scalar HighwayScenario1.node[28].veinsmobility minSpeed 15.833437276608
scalar HighwayScenario1.node[28].veinsmobility maxSpeed 34.090526507829
scalar HighwayScenario1.node[28].veinsmobility totalDistance 4965.2426395284
scalar HighwayScenario1.node[28].veinsmobility totalCO2Emission 1183.9078198388
scalar HighwayScenario1.node[24].appl generatedWSMs 0
scalar HighwayScenario1.node[24].appl receivedWSMs 0
scalar HighwayScenario1.node[24].appl generatedBSMs 0
scalar HighwayScenario1.node[24].appl receivedBSMs 0
scalar HighwayScenario1.node[24].appl generatedWSAs 0
scalar HighwayScenario1.node[24].appl receivedWSAs 0
scalar HighwayScenario1.node[24].appl delayBSM_P1 0
scalar HighwayScenario1.node[24].appl delayBSM_P2 0
scalar HighwayScenario1.node[24].nic.phy80211p busyTime 0
scalar HighwayScenario1.node[24].nic.mac1609_4 ReceivedUnicastPackets 0
scalar HighwayScenario1.node[24].nic.mac1609_4 ReceivedBroadcasts 0
scalar HighwayScenario1.node[24].nic.mac1609_4 SentPackets 0
scalar HighwayScenario1.node[24].nic.mac1609_4 SNIRLostPackets 0
scalar HighwayScenario1.node[24].nic.mac1609_4 RXTXLostPackets 0
scalar HighwayScenario1.node[24].nic.mac1609_4 TotalLostPackets 0
scalar HighwayScenario1.node[24].nic.mac1609_4 DroppedPacketsInMac 0
scalar HighwayScenario1.node[24].nic.mac1609_4 TooLittleTime 0
scalar HighwayScenario1.node[24].nic.mac1609_4 TimesIntoBackoff 0
scalar HighwayScenario1.node[24].nic.mac1609_4 SlotsBackoff 0
scalar HighwayScenario1.node[24].nic.mac1609_4 NumInternalContention 0
scalar HighwayScenario1.node[24].nic.mac1609_4 totalBusyTime 0
scalar HighwayScenario1.node[24].veinsmobility startTime 47
scalar HighwayScenario1.node[24].veinsmobility totalTime 174
scalar HighwayScenario1.node[24].veinsmobility stopTime 222
scalar HighwayScenario1.node[24].veinsmobility minSpeed 7.9993516099678
scalar HighwayScenario1.node[24].veinsmobility maxSpeed 32.147894439825
scalar HighwayScenario1.node[24].veinsmobility totalDistance 4994.4700286404
scalar HighwayScenario1.node[24].veinsmobility totalCO2Emission 1269.508323068
scalar HighwayScenario1.node[27].appl generatedWSMs 0
scalar HighwayScenario1.node[27].appl receivedWSMs 0
scalar HighwayScenario1.node[27].appl generatedBSMs 0
scalar HighwayScenario1.node[27].appl receivedBSMs 0
scalar HighwayScenario1.node[27].appl generatedWSAs 0
scalar HighwayScenario1.node[27].appl receivedWSAs 0
scalar HighwayScenario1.node[27].appl delayBSM_P1 0
scalar HighwayScenario1.node[27].appl delayBSM_P2 0
scalar HighwayScenario1.node[27].nic.phy80211p busyTime 0
scalar HighwayScenario1.node[27].nic.mac1609_4 ReceivedUnicastPackets 0
scalar HighwayScenario1.node[27].nic.mac1609_4 ReceivedBroadcasts 0
scalar HighwayScenario1.node[27].nic.mac1609_4 SentPackets 0
scalar HighwayScenario1.node[27].nic.mac1609_4 SNIRLostPackets 0
scalar HighwayScenario1.node[27].nic.mac1609_4 RXTXLostPackets 0
scalar HighwayScenario1.node[27].nic.mac1609_4 TotalLostPackets 0
scalar HighwayScenario1.node[27].nic.mac1609_4 DroppedPacketsInMac 0
scalar HighwayScenario1.node[27].nic.mac1609_4 TooLittleTime 0
scalar HighwayScenario1.node[27].nic.mac1609_4 TimesIntoBackoff 0
scalar HighwayScenario1.node[27].nic.mac1609_4 SlotsBackoff 0
scalar HighwayScenario1.node[27].nic.mac1609_4 NumInternalContention 0
scalar HighwayScenario1.node[27].nic.mac1609_4 totalBusyTime 0
scalar HighwayScenario1.node[27].veinsmobility startTime 52
scalar HighwayScenario1.node[27].veinsmobility totalTime 171
scalar HighwayScenario1.node[27].veinsmobility stopTime 224
scalar HighwayScenario1.node[27].veinsmobility minSpeed 2.2228498121508
scalar HighwayScenario1.node[27].veinsmobility maxSpeed 32.730579455551
scalar HighwayScenario1.node[27].veinsmobility totalDistance 4977.4612098358
scalar HighwayScenario1.node[27].veinsmobility totalCO2Emission 1049.3765794475
scalar HighwayScenario1.node[26].appl generatedWSMs 0
scalar HighwayScenario1.node[26].appl receivedWSMs 0
scalar HighwayScenario1.node[26].appl generatedBSMs 0
scalar HighwayScenario1.node[26].appl receivedBSMs 0
scalar HighwayScenario1.node[26].appl generatedWSAs 0
scalar HighwayScenario1.node[26].appl receivedWSAs 0
scalar HighwayScenario1.node[26].appl delayBSM_P1 0
scalar HighwayScenario1.node[26].appl delayBSM_P2 0
scalar HighwayScenario1.node[26].nic.phy80211p busyTime 0
scalar HighwayScenario1.node[26].nic.mac1609_4 ReceivedUnicastPackets 0
scalar HighwayScenario1.node[26].nic.mac1609_4 ReceivedBroadcasts 0
scalar HighwayScenario1.node[26].nic.mac1609_4 SentPackets 0
scalar HighwayScenario1.node[26].nic.mac1609_4 SNIRLostPackets 0
scalar HighwayScenario1.node[26].nic.mac1609_4 RXTXLostPackets 0
scalar HighwayScenario1.node[26].nic.mac1609_4 TotalLostPackets 0
scalar HighwayScenario1.node[26].nic.mac1609_4 DroppedPacketsInMac 0
scalar HighwayScenario1.node[26].nic.mac1609_4 TooLittleTime 0
scalar HighwayScenario1.node[26].nic.mac1609_4 TimesIntoBackoff 0
scalar HighwayScenario1.node[26].nic.mac1609_4 SlotsBackoff 0
scalar HighwayScenario1.node[26].nic.mac1609_4 NumInternalContention 0
scalar HighwayScenario1.node[26].nic.mac1609_4 totalBusyTime 0
scalar HighwayScenario1.node[26].veinsmobility startTime 51
scalar HighwayScenario1.node[26].veinsmobility totalTime 172
scalar HighwayScenario1.node[26].veinsmobility stopTime 224
scalar HighwayScenario1.node[26].veinsmobility minSpeed 14.97407325598
scalar HighwayScenario1.node[26].veinsmobility maxSpeed 31.507279914423
scalar HighwayScenario1.node[26].veinsmobility totalDistance 4992.3222239903
scalar HighwayScenario1.node[26].veinsmobility totalCO2Emission 1099.4409474419
scalar HighwayScenario1.node[32].appl generatedWSMs 0
scalar HighwayScenario1.node[32].appl receivedWSMs 0
scalar HighwayScenario1.node[32].appl generatedBSMs 0
scalar HighwayScenario1.node[32].appl receivedBSMs 0
scalar HighwayScenario1.node[32].appl generatedWSAs 0
scalar HighwayScenario1.node[32].appl receivedWSAs 0
scalar HighwayScenario1.node[32].appl delayBSM_P1 0
scalar HighwayScenario1.node[32].appl delayBSM_P2 0
scalar HighwayScenario1.node[32].nic.phy80211p busyTime 0
scalar HighwayScenario1.node[32].nic.mac1609_4 ReceivedUnicastPackets 0
scalar HighwayScenario1.node[32].nic.mac1609_4 ReceivedBroadcasts 0
scalar HighwayScenario1.node[32].nic.mac1609_4 SentPackets 0
scalar HighwayScenario1.node[32].nic.mac1609_4 SNIRLostPackets 0
scalar HighwayScenario1.node[32].nic.mac1609_4 RXTXLostPackets 0
scalar HighwayScenario1.node[32].nic.mac1609_4 TotalLostPackets 0
scalar HighwayScenario1.node[32].nic.mac1609_4 DroppedPacketsInMac 0
scalar HighwayScenario1.node[32].nic.mac1609_4 TooLittleTime 0
scalar HighwayScenario1.node[32].nic.mac1609_4 TimesIntoBackoff 0
scalar HighwayScenario1.node[32].nic.mac1609_4 SlotsBackoff 0
scalar HighwayScenario1.node[32].nic.mac1609_4 NumInternalContention 0
scalar HighwayScenario1.node[32].nic.mac1609_4 totalBusyTime 0
scalar HighwayScenario1.node[32].veinsmobility startTime 60
scalar HighwayScenario1.node[32].veinsmobility totalTime 164
scalar HighwayScenario1.node[32].veinsmobility stopTime 225
scalar HighwayScenario1.node[32].veinsmobility minSpeed 13.546351022359
scalar HighwayScenario1.node[32].veinsmobility maxSpeed 32.871574367104
scalar HighwayScenario1.node[32].veinsmobility totalDistance 4968.3111170898
scalar HighwayScenario1.node[32].veinsmobility totalCO2Emission 1075.6532120711
scalar HighwayScenario1.node[33].appl generatedWSMs 0
scalar HighwayScenario1.node[33].appl receivedWSMs 0
scalar HighwayScenario1.node[33].appl generatedBSMs 0
scalar HighwayScenario1.node[33].appl receivedBSMs 0
scalar HighwayScenario1.node[33].appl generatedWSAs 0
scalar HighwayScenario1.node[33].appl receivedWSAs 0
scalar HighwayScenario1.node[33].appl delayBSM_P1 0
scalar HighwayScenario1.node[33].appl delayBSM_P2 0
scalar HighwayScenario1.node[33].nic.phy80211p busyTime 0
scalar HighwayScenario1.node[33].nic.mac1609_4 ReceivedUnicastPackets 0
scalar HighwayScenario1.node[33].nic.mac1609_4 ReceivedBroadcasts 0
scalar HighwayScenario1.node[33].nic.mac1609_4 SentPackets 0
scalar HighwayScenario1.node[33].nic.mac1609_4 SNIRLostPackets 0
scalar HighwayScenario1.node[33].nic.mac1609_4 RXTXLostPackets 0
scalar HighwayScenario1.node[33].nic.mac1609_4 TotalLostPackets 0
scalar HighwayScenario1.node[33].nic.mac1609_4 DroppedPacketsInMac 0
scalar HighwayScenario1.node[33].nic.mac1609_4 TooLittleTime 0
scalar HighwayScenario1.node[33].nic.mac1609_4 TimesIntoBackoff 0
scalar HighwayScenario1.node[33].nic.mac1609_4 SlotsBackoff 0
scalar HighwayScenario1.node[33].nic.mac1609_4 NumInternalContention 0
scalar HighwayScenario1.node[33].nic.mac1609_4 totalBusyTime 0
scalar HighwayScenario1.node[33].veinsmobility startTime 61
scalar HighwayScenario1.node[33].veinsmobility totalTime 165
scalar HighwayScenario1.node[33].veinsmobility stopTime 227
scalar HighwayScenario1.node[33].veinsmobility minSpeed 2.0207092712745
scalar HighwayScenario1.node[33].veinsmobility maxSpeed 33.994178175216
scalar HighwayScenario1.node[33].veinsmobility totalDistance 4995.3734095285
scalar HighwayScenario1.node[33].veinsmobility totalCO2Emission 1144.9228542313
scalar HighwayScenario1.node[20].appl generatedWSMs 0
scalar HighwayScenario1.node[20].appl receivedWSMs 0
scalar HighwayScenario1.node[20].appl generatedBSMs 0
scalar HighwayScenario1.node[20].appl receivedBSMs 0
scalar HighwayScenario1.node[20].appl generatedWSAs 0
scalar HighwayScenario1.node[20].appl receivedWSAs 0
scalar HighwayScenario1.node[20].appl delayBSM_P1 0
scalar HighwayScenario1.node[20].appl delayBSM_P2 0
scalar HighwayScenario1.node[20].nic.phy80211p busyTime 0
scalar HighwayScenario1.node[20].nic.mac1609_4 ReceivedUnicastPackets 0
scalar HighwayScenario1.node[20].nic.mac1609_4 ReceivedBroadcasts 0
scalar HighwayScenario1.node[20].nic.mac1609_4 SentPackets 0
scalar HighwayScenario1.node[20].nic.mac1609_4 SNIRLostPackets 0
scalar HighwayScenario1.node[20].nic.mac1609_4 RXTXLostPackets 0
scalar HighwayScenario1.node[20].nic.mac1609_4 TotalLostPackets 0
scalar HighwayScenario1.node[20].nic.mac1609_4 DroppedPacketsInMac 0
scalar HighwayScenario1.node[20].nic.mac1609_4 TooLittleTime 0
scalar HighwayScenario1.node[20].nic.mac1609_4 TimesIntoBackoff 0
scalar HighwayScenario1.node[20].nic.mac1609_4 SlotsBackoff 0
scalar HighwayScenario1.node[20].nic.mac1609_4 NumInternalContention 0
scalar HighwayScenario1.node[20].nic.mac1609_4 totalBusyTime 0
scalar HighwayScenario1.node[20].veinsmobility startTime 42
scalar HighwayScenario1.node[20].veinsmobility totalTime 185
scalar HighwayScenario1.node[20].veinsmobility stopTime 228
scalar HighwayScenario1.node[20].veinsmobility minSpeed 19.607301850902
scalar HighwayScenario1.node[20].veinsmobility maxSpeed 27.552560105737
scalar HighwayScenario1.node[20].veinsmobility totalDistance 4971.7345845405
scalar HighwayScenario1.node[20].veinsmobility totalCO2Emission 885.37066405149
scalar HighwayScenario1.node[34].appl generatedWSMs 0
scalar HighwayScenario1.node[34].appl receivedWSMs 0
scalar HighwayScenario1.node[34].appl generatedBSMs 0
scalar HighwayScenario1.node[34].appl receivedBSMs 0
scalar HighwayScenario1.node[34].appl generatedWSAs 0
scalar HighwayScenario1.node[34].appl receivedWSAs 0
scalar HighwayScenario1.node[34].appl delayBSM_P1 0
scalar HighwayScenario1.node[34].appl delayBSM_P2 0
scalar HighwayScenario1.node[34].nic.phy80211p busyTime 0
scalar HighwayScenario1.node[34].nic.mac1609_4 ReceivedUnicastPackets 0
scalar HighwayScenario1.node[34].nic.mac1609_4 ReceivedBroadcasts 0
scalar HighwayScenario1.node[34].nic.mac1609_4 SentPackets 0
scalar HighwayScenario1.node[34].nic.mac1609_4 SNIRLostPackets 0
scalar HighwayScenario1.node[34].nic.mac1609_4 RXTXLostPackets 0
scalar HighwayScenario1.node[34].nic.mac1609_4 TotalLostPackets 0
scalar HighwayScenario1.node[34].nic.mac1609_4 DroppedPacketsInMac 0
scalar HighwayScenario1.node[34].nic.mac1609_4 TooLittleTime 0
scalar HighwayScenario1.node[34].nic.mac1609_4 TimesIntoBackoff 0
scalar HighwayScenario1.node[34].nic.mac1609_4 SlotsBackoff 0
scalar HighwayScenario1.node[34].nic.mac1609_4 NumInternalContention 0
scalar HighwayScenario1.node[34].nic.mac1609_4 totalBusyTime 0
scalar HighwayScenario1.node[34].veinsmobility startTime 62
scalar HighwayScenario1.node[34].veinsmobility totalTime 166
scalar HighwayScenario1.node[34].veinsmobility stopTime 229
scalar HighwayScenario1.node[34].veinsmobility minSpeed 16.188313988438
scalar HighwayScenario1.node[34].veinsmobility maxSpeed 32.334744229263
scalar HighwayScenario1.node[34].veinsmobility totalDistance 4992.983776798
scalar HighwayScenario1.node[34].veinsmobility totalCO2Emission 1128.4514395381
scalar HighwayScenario1.node[29].appl generatedWSMs 0
scalar HighwayScenario1.node[29].appl receivedWSMs 0
scalar HighwayScenario1.node[29].appl generatedBSMs 0
scalar HighwayScenario1.node[29].appl receivedBSMs 0
scalar HighwayScenario1.node[29].appl generatedWSAs 0
scalar HighwayScenario1.node[29].appl receivedWSAs 0
scalar HighwayScenario1.node[29].appl delayBSM_P1 0
scalar HighwayScenario1.node[29].appl delayBSM_P2 0
scalar HighwayScenario1.node[29].nic.phy80211p busyTime 0
scalar HighwayScenario1.node[29].nic.mac1609_4 ReceivedUnicastPackets 0
scalar HighwayScenario1.node[29].nic.mac1609_4 ReceivedBroadcasts 0
scalar HighwayScenario1.node[29].nic.mac1609_4 SentPackets 0
scalar HighwayScenario1.node[29].nic.mac1609_4 SNIRLostPackets 0
scalar HighwayScenario1.node[29].nic.mac1609_4 RXTXLostPackets 0
scalar HighwayScenario1.node[29].nic.mac1609_4 TotalLostPackets 0
scalar HighwayScenario1.node[29].nic.mac1609_4 DroppedPacketsInMac 0
scalar HighwayScenario1.node[29].nic.mac1609_4 TooLittleTime 0
scalar HighwayScenario1.node[29].nic.mac1609_4 TimesIntoBackoff 0
scalar HighwayScenario1.node[29].nic.mac1609_4 SlotsBackoff 0
scalar HighwayScenario1.node[29].nic.mac1609_4 NumInternalContention 0
scalar HighwayScenario1.node[29].nic.mac1609_4 totalBusyTime 0
scalar HighwayScenario1.node[29].veinsmobility startTime 54
scalar HighwayScenario1.node[29].veinsmobility totalTime 175
scalar HighwayScenario1.node[29].veinsmobility stopTime 230
scalar HighwayScenario1.node[29].veinsmobility minSpeed 2.8746726085347
scalar HighwayScenario1.node[29].veinsmobility maxSpeed 30.646935428202
scalar HighwayScenario1.node[29].veinsmobility totalDistance 4972.9519997002
scalar HighwayScenario1.node[29].veinsmobility totalCO2Emission 987.13278983908
scalar HighwayScenario1.node[25].appl generatedWSMs 0
scalar HighwayScenario1.node[25].appl receivedWSMs 0
scalar HighwayScenario1.node[25].appl generatedBSMs 0
scalar HighwayScenario1.node[25].appl receivedBSMs 0
scalar HighwayScenario1.node[25].appl generatedWSAs 0
scalar HighwayScenario1.node[25].appl receivedWSAs 0
scalar HighwayScenario1.node[25].appl delayBSM_P1 0
scalar HighwayScenario1.node[25].appl delayBSM_P2 0
scalar HighwayScenario1.node[25].nic.phy80211p busyTime 0
scalar HighwayScenario1.node[25].nic.mac1609_4 ReceivedUnicastPackets 0
scalar HighwayScenario1.node[25].nic.mac1609_4 ReceivedBroadcasts 0
scalar HighwayScenario1.node[25].nic.mac1609_4 SentPackets 0
scalar HighwayScenario1.node[25].nic.mac1609_4 SNIRLostPackets 0
scalar HighwayScenario1.node[25].nic.mac1609_4 RXTXLostPackets 0
scalar HighwayScenario1.node[25].nic.mac1609_4 TotalLostPackets 0
scalar HighwayScenario1.node[25].nic.mac1609_4 DroppedPacketsInMac 0
scalar HighwayScenario1.node[25].nic.mac1609_4 TooLittleTime 0
scalar HighwayScenario1.node[25].nic.mac1609_4 TimesIntoBackoff 0
scalar HighwayScenario1.node[25].nic.mac1609_4 SlotsBackoff 0
scalar HighwayScenario1.node[25].nic.mac1609_4 NumInternalContention 0
scalar HighwayScenario1.node[25].nic.mac1609_4 totalBusyTime 0
scalar HighwayScenario1.node[25].veinsmobility startTime 48
scalar HighwayScenario1.node[25].veinsmobility totalTime 181
scalar HighwayScenario1.node[25].veinsmobility stopTime 230
scalar HighwayScenario1.node[25].veinsmobility minSpeed 0.32179855460548
scalar HighwayScenario1.node[25].veinsmobility maxSpeed 30.252966321777
scalar HighwayScenario1.node[25].veinsmobility totalDistance 4991.0219306913
scalar HighwayScenario1.node[25].veinsmobility totalCO2Emission 1067.6932296707
scalar HighwayScenario1.node[38].appl generatedWSMs 0
scalar HighwayScenario1.node[38].appl receivedWSMs 0
scalar HighwayScenario1.node[38].appl generatedBSMs 0
scalar HighwayScenario1.node[38].appl receivedBSMs 0
scalar HighwayScenario1.node[38].appl generatedWSAs 0
scalar HighwayScenario1.node[38].appl receivedWSAs 0
scalar HighwayScenario1.node[38].appl delayBSM_P1 0
scalar HighwayScenario1.node[38].appl delayBSM_P2 0
scalar HighwayScenario1.node[38].nic.phy80211p busyTime 0
scalar HighwayScenario1.node[38].nic.mac1609_4 ReceivedUnicastPackets 0
scalar HighwayScenario1.node[38].nic.mac1609_4 ReceivedBroadcasts 0
scalar HighwayScenario1.node[38].nic.mac1609_4 SentPackets 0
scalar HighwayScenario1.node[38].nic.mac1609_4 SNIRLostPackets 0
scalar HighwayScenario1.node[38].nic.mac1609_4 RXTXLostPackets 0
scalar HighwayScenario1.node[38].nic.mac1609_4 TotalLostPackets 0
scalar HighwayScenario1.node[38].nic.mac1609_4 DroppedPacketsInMac 0
scalar HighwayScenario1.node[38].nic.mac1609_4 TooLittleTime 0
scalar HighwayScenario1.node[38].nic.mac1609_4 TimesIntoBackoff 0
scalar HighwayScenario1.node[38].nic.mac1609_4 SlotsBackoff 0
scalar HighwayScenario1.node[38].nic.mac1609_4 NumInternalContention 0
scalar HighwayScenario1.node[38].nic.mac1609_4 totalBusyTime 0
scalar HighwayScenario1.node[38].veinsmobility startTime 70
scalar HighwayScenario1.node[38].veinsmobility totalTime 161
scalar HighwayScenario1.node[38].veinsmobility stopTime 232
scalar HighwayScenario1.node[38].veinsmobility minSpeed 9.5736008701367
scalar HighwayScenario1.node[38].veinsmobility maxSpeed 36.003418156867
scalar HighwayScenario1.node[38].veinsmobility totalDistance 4981.4231993216
scalar HighwayScenario1.node[38].veinsmobility totalCO2Emission 1103.0934854976
scalar HighwayScenario1.node[36].appl generatedWSMs 0
scalar HighwayScenario1.node[36].appl receivedWSMs 0
scalar HighwayScenario1.node[36].appl generatedBSMs 0
scalar HighwayScenario1.node[36].appl receivedBSMs 0
scalar HighwayScenario1.node[36].appl generatedWSAs 0
scalar HighwayScenario1.node[36].appl receivedWSAs 0
scalar HighwayScenario1.node[36].appl delayBSM_P1 0
scalar HighwayScenario1.node[36].appl delayBSM_P2 0
scalar HighwayScenario1.node[36].nic.phy80211p busyTime 0
scalar HighwayScenario1.node[36].nic.mac1609_4 ReceivedUnicastPackets 0
scalar HighwayScenario1.node[36].nic.mac1609_4 ReceivedBroadcasts 0
scalar HighwayScenario1.node[36].nic.mac1609_4 SentPackets 0
scalar HighwayScenario1.node[36].nic.mac1609_4 SNIRLostPackets 0
scalar HighwayScenario1.node[36].nic.mac1609_4 RXTXLostPackets 0
scalar HighwayScenario1.node[36].nic.mac1609_4 TotalLostPackets 0
scalar HighwayScenario1.node[36].nic.mac1609_4 DroppedPacketsInMac 0
scalar HighwayScenario1.node[36].nic.mac1609_4 TooLittleTime 0
scalar HighwayScenario1.node[36].nic.mac1609_4 TimesIntoBackoff 0
scalar HighwayScenario1.node[36].nic.mac1609_4 SlotsBackoff 0
scalar HighwayScenario1.node[36].nic.mac1609_4 NumInternalContention 0
scalar HighwayScenario1.node[36].nic.mac1609_4 totalBusyTime 0
scalar HighwayScenario1.node[36].veinsmobility startTime 67
scalar HighwayScenario1.node[36].veinsmobility totalTime 164
scalar HighwayScenario1.node[36].veinsmobility stopTime 232
scalar HighwayScenario1.node[36].veinsmobility minSpeed 4.9250111827373
scalar HighwayScenario1.node[36].veinsmobility maxSpeed 32.926130394983
scalar HighwayScenario1.node[36].veinsmobility totalDistance 4980.3053496849
scalar HighwayScenario1.node[36].veinsmobility totalCO2Emission 1023.0816426443
scalar HighwayScenario1.node[31].appl generatedWSMs 0
scalar HighwayScenario1.node[31].appl receivedWSMs 0
scalar HighwayScenario1.node[31].appl generatedBSMs 0
scalar HighwayScenario1.node[31].appl receivedBSMs 0
scalar HighwayScenario1.node[31].appl generatedWSAs 0
scalar HighwayScenario1.node[31].appl receivedWSAs 0
scalar HighwayScenario1.node[31].appl delayBSM_P1 0
scalar HighwayScenario1.node[31].appl delayBSM_P2 0
scalar HighwayScenario1.node[31].nic.phy80211p busyTime 0
scalar HighwayScenario1.node[31].nic.mac1609_4 ReceivedUnicastPackets 0
scalar HighwayScenario1.node[31].nic.mac1609_4 ReceivedBroadcasts 0
scalar HighwayScenario1.node[31].nic.mac1609_4 SentPackets 0
scalar HighwayScenario1.node[31].nic.mac1609_4 SNIRLostPackets 0
scalar HighwayScenario1.node[31].nic.mac1609_4 RXTXLostPackets 0
scalar HighwayScenario1.node[31].nic.mac1609_4 TotalLostPackets 0
scalar HighwayScenario1.node[31].nic.mac1609_4 DroppedPacketsInMac 0
scalar HighwayScenario1.node[31].nic.mac1609_4 TooLittleTime 0
scalar HighwayScenario1.node[31].nic.mac1609_4 TimesIntoBackoff 0
scalar HighwayScenario1.node[31].nic.mac1609_4 SlotsBackoff 0
scalar HighwayScenario1.node[31].nic.mac1609_4 NumInternalContention 0
scalar HighwayScenario1.node[31].nic.mac1609_4 totalBusyTime 0
scalar HighwayScenario1.node[31].veinsmobility startTime 59
scalar HighwayScenario1.node[31].veinsmobility totalTime 173
scalar HighwayScenario1.node[31].veinsmobility stopTime 233
scalar HighwayScenario1.node[31].veinsmobility minSpeed 0.012056843503568
scalar HighwayScenario1.node[31].veinsmobility maxSpeed 32.239870700572
scalar HighwayScenario1.node[31].veinsmobility totalDistance 4966.4198650922
scalar HighwayScenario1.node[31].veinsmobility totalCO2Emission 1050.1238221365
scalar HighwayScenario1.node[0].appl generatedWSMs 0
scalar HighwayScenario1.node[0].appl receivedWSMs 70
scalar HighwayScenario1.node[0].appl generatedBSMs 0
scalar HighwayScenario1.node[0].appl receivedBSMs 0
scalar HighwayScenario1.node[0].appl generatedWSAs 0
scalar HighwayScenario1.node[0].appl receivedWSAs 0
scalar HighwayScenario1.node[0].appl delayBSM_P1 0
scalar HighwayScenario1.node[0].appl delayBSM_P2 0.3537367699936
scalar HighwayScenario1.node[0].nic.phy80211p busyTime 3.9822222222222e-005
scalar HighwayScenario1.node[0].nic.mac1609_4 ReceivedUnicastPackets 0
scalar HighwayScenario1.node[0].nic.mac1609_4 ReceivedBroadcasts 70
scalar HighwayScenario1.node[0].nic.mac1609_4 SentPackets 0
scalar HighwayScenario1.node[0].nic.mac1609_4 SNIRLostPackets 0
scalar HighwayScenario1.node[0].nic.mac1609_4 RXTXLostPackets 0
scalar HighwayScenario1.node[0].nic.mac1609_4 TotalLostPackets 0
scalar HighwayScenario1.node[0].nic.mac1609_4 DroppedPacketsInMac 0
scalar HighwayScenario1.node[0].nic.mac1609_4 TooLittleTime 0
scalar HighwayScenario1.node[0].nic.mac1609_4 TimesIntoBackoff 0
scalar HighwayScenario1.node[0].nic.mac1609_4 SlotsBackoff 0
scalar HighwayScenario1.node[0].nic.mac1609_4 NumInternalContention 0
scalar HighwayScenario1.node[0].nic.mac1609_4 totalBusyTime 0.00896
scalar HighwayScenario1.node[0].veinsmobility startTime 9
scalar HighwayScenario1.node[0].veinsmobility totalTime 224
scalar HighwayScenario1.node[0].veinsmobility stopTime 234
scalar HighwayScenario1.node[0].veinsmobility minSpeed 0
scalar HighwayScenario1.node[0].veinsmobility maxSpeed 34.085832217641
scalar HighwayScenario1.node[0].veinsmobility totalDistance 4975.565348974
scalar HighwayScenario1.node[0].veinsmobility totalCO2Emission 1459.1383727745
scalar HighwayScenario1.node[35].appl generatedWSMs 0
scalar HighwayScenario1.node[35].appl receivedWSMs 0
scalar HighwayScenario1.node[35].appl generatedBSMs 0
scalar HighwayScenario1.node[35].appl receivedBSMs 0
scalar HighwayScenario1.node[35].appl generatedWSAs 0
scalar HighwayScenario1.node[35].appl receivedWSAs 0
scalar HighwayScenario1.node[35].appl delayBSM_P1 0
scalar HighwayScenario1.node[35].appl delayBSM_P2 0
scalar HighwayScenario1.node[35].nic.phy80211p busyTime 0
scalar HighwayScenario1.node[35].nic.mac1609_4 ReceivedUnicastPackets 0
scalar HighwayScenario1.node[35].nic.mac1609_4 ReceivedBroadcasts 0
scalar HighwayScenario1.node[35].nic.mac1609_4 SentPackets 0
scalar HighwayScenario1.node[35].nic.mac1609_4 SNIRLostPackets 0
scalar HighwayScenario1.node[35].nic.mac1609_4 RXTXLostPackets 0
scalar HighwayScenario1.node[35].nic.mac1609_4 TotalLostPackets 0
scalar HighwayScenario1.node[35].nic.mac1609_4 DroppedPacketsInMac 0
scalar HighwayScenario1.node[35].nic.mac1609_4 TooLittleTime 0
scalar HighwayScenario1.node[35].nic.mac1609_4 TimesIntoBackoff 0
scalar HighwayScenario1.node[35].nic.mac1609_4 SlotsBackoff 0
scalar HighwayScenario1.node[35].nic.mac1609_4 NumInternalContention 0
scalar HighwayScenario1.node[35].nic.mac1609_4 totalBusyTime 0
scalar HighwayScenario1.node[35].veinsmobility startTime 63
scalar HighwayScenario1.node[35].veinsmobility totalTime 173
scalar HighwayScenario1.node[35].veinsmobility stopTime 237
scalar HighwayScenario1.node[35].veinsmobility minSpeed 0.015751051343464
scalar HighwayScenario1.node[35].veinsmobility maxSpeed 33.938454311797
scalar HighwayScenario1.node[35].veinsmobility totalDistance 4995.1214236622
scalar HighwayScenario1.node[35].veinsmobility totalCO2Emission 1094.2552045274
scalar HighwayScenario1.node[1].appl generatedWSMs 0
scalar HighwayScenario1.node[1].appl receivedWSMs 74
scalar HighwayScenario1.node[1].appl generatedBSMs 0
scalar HighwayScenario1.node[1].appl receivedBSMs 0
scalar HighwayScenario1.node[1].appl generatedWSAs 0
scalar HighwayScenario1.node[1].appl receivedWSAs 0
scalar HighwayScenario1.node[1].appl delayBSM_P1 0
scalar HighwayScenario1.node[1].appl delayBSM_P2 0.40796101330024
scalar HighwayScenario1.node[1].nic.phy80211p busyTime 4.1543859649123e-005
scalar HighwayScenario1.node[1].nic.mac1609_4 ReceivedUnicastPackets 0
scalar HighwayScenario1.node[1].nic.mac1609_4 ReceivedBroadcasts 74
scalar HighwayScenario1.node[1].nic.mac1609_4 SentPackets 0
scalar HighwayScenario1.node[1].nic.mac1609_4 SNIRLostPackets 0
scalar HighwayScenario1.node[1].nic.mac1609_4 RXTXLostPackets 0
scalar HighwayScenario1.node[1].nic.mac1609_4 TotalLostPackets 0
scalar HighwayScenario1.node[1].nic.mac1609_4 DroppedPacketsInMac 0
scalar HighwayScenario1.node[1].nic.mac1609_4 TooLittleTime 0
scalar HighwayScenario1.node[1].nic.mac1609_4 TimesIntoBackoff 0
scalar HighwayScenario1.node[1].nic.mac1609_4 SlotsBackoff 0
scalar HighwayScenario1.node[1].nic.mac1609_4 NumInternalContention 0
scalar HighwayScenario1.node[1].nic.mac1609_4 totalBusyTime 0.009472
scalar HighwayScenario1.node[1].veinsmobility startTime 11
scalar HighwayScenario1.node[1].veinsmobility totalTime 227
scalar HighwayScenario1.node[1].veinsmobility stopTime 239
scalar HighwayScenario1.node[1].veinsmobility minSpeed 0
scalar HighwayScenario1.node[1].veinsmobility maxSpeed 34.035168762822
scalar HighwayScenario1.node[1].veinsmobility totalDistance 4990.7482149617
scalar HighwayScenario1.node[1].veinsmobility totalCO2Emission 1133.9474115825
scalar HighwayScenario1.node[40].appl generatedWSMs 0
scalar HighwayScenario1.node[40].appl receivedWSMs 0
scalar HighwayScenario1.node[40].appl generatedBSMs 0
scalar HighwayScenario1.node[40].appl receivedBSMs 0
scalar HighwayScenario1.node[40].appl generatedWSAs 0
scalar HighwayScenario1.node[40].appl receivedWSAs 0
scalar HighwayScenario1.node[40].appl delayBSM_P1 0
scalar HighwayScenario1.node[40].appl delayBSM_P2 0
scalar HighwayScenario1.node[40].nic.phy80211p busyTime 0
scalar HighwayScenario1.node[40].nic.mac1609_4 ReceivedUnicastPackets 0
scalar HighwayScenario1.node[40].nic.mac1609_4 ReceivedBroadcasts 0
scalar HighwayScenario1.node[40].nic.mac1609_4 SentPackets 0
scalar HighwayScenario1.node[40].nic.mac1609_4 SNIRLostPackets 0
scalar HighwayScenario1.node[40].nic.mac1609_4 RXTXLostPackets 0
scalar HighwayScenario1.node[40].nic.mac1609_4 TotalLostPackets 0
scalar HighwayScenario1.node[40].nic.mac1609_4 DroppedPacketsInMac 0
scalar HighwayScenario1.node[40].nic.mac1609_4 TooLittleTime 0
scalar HighwayScenario1.node[40].nic.mac1609_4 TimesIntoBackoff 0
scalar HighwayScenario1.node[40].nic.mac1609_4 SlotsBackoff 0
scalar HighwayScenario1.node[40].nic.mac1609_4 NumInternalContention 0
scalar HighwayScenario1.node[40].nic.mac1609_4 totalBusyTime 0
scalar HighwayScenario1.node[40].veinsmobility startTime 72
scalar HighwayScenario1.node[40].veinsmobility totalTime 170
scalar HighwayScenario1.node[40].veinsmobility stopTime 243
scalar HighwayScenario1.node[40].veinsmobility minSpeed 12.143714661316
scalar HighwayScenario1.node[40].veinsmobility maxSpeed 31.20408190688
scalar HighwayScenario1.node[40].veinsmobility totalDistance 4974.9446094354
scalar HighwayScenario1.node[40].veinsmobility totalCO2Emission 965.92592448166
scalar HighwayScenario1.node[3].appl generatedWSMs 0
scalar HighwayScenario1.node[3].appl receivedWSMs 62
scalar HighwayScenario1.node[3].appl generatedBSMs 0
scalar HighwayScenario1.node[3].appl receivedBSMs 1
scalar HighwayScenario1.node[3].appl generatedWSAs 0
scalar HighwayScenario1.node[3].appl receivedWSAs 0
scalar HighwayScenario1.node[3].appl delayBSM_P1 0.000106973592
scalar HighwayScenario1.node[3].appl delayBSM_P2 0.97765280477323
scalar HighwayScenario1.node[3].nic.phy80211p busyTime 3.4212765957447e-005
scalar HighwayScenario1.node[3].nic.mac1609_4 ReceivedUnicastPackets 0
scalar HighwayScenario1.node[3].nic.mac1609_4 ReceivedBroadcasts 63
scalar HighwayScenario1.node[3].nic.mac1609_4 SentPackets 0
scalar HighwayScenario1.node[3].nic.mac1609_4 SNIRLostPackets 0
scalar HighwayScenario1.node[3].nic.mac1609_4 RXTXLostPackets 0
scalar HighwayScenario1.node[3].nic.mac1609_4 TotalLostPackets 0
scalar HighwayScenario1.node[3].nic.mac1609_4 DroppedPacketsInMac 0
scalar HighwayScenario1.node[3].nic.mac1609_4 TooLittleTime 0
scalar HighwayScenario1.node[3].nic.mac1609_4 TimesIntoBackoff 0
scalar HighwayScenario1.node[3].nic.mac1609_4 SlotsBackoff 0
scalar HighwayScenario1.node[3].nic.mac1609_4 NumInternalContention 0
scalar HighwayScenario1.node[3].nic.mac1609_4 totalBusyTime 0.00804
scalar HighwayScenario1.node[3].veinsmobility startTime 13
scalar HighwayScenario1.node[3].veinsmobility totalTime 234
scalar HighwayScenario1.node[3].veinsmobility stopTime 248
scalar HighwayScenario1.node[3].veinsmobility minSpeed 0
scalar HighwayScenario1.node[3].veinsmobility maxSpeed 31.144084224067
scalar HighwayScenario1.node[3].veinsmobility totalDistance 4972.4353376303
scalar HighwayScenario1.node[3].veinsmobility totalCO2Emission 1106.9350907639
scalar HighwayScenario1.node[43].appl generatedWSMs 0
scalar HighwayScenario1.node[43].appl receivedWSMs 0
scalar HighwayScenario1.node[43].appl generatedBSMs 0
scalar HighwayScenario1.node[43].appl receivedBSMs 0
scalar HighwayScenario1.node[43].appl generatedWSAs 0
scalar HighwayScenario1.node[43].appl receivedWSAs 0
scalar HighwayScenario1.node[43].appl delayBSM_P1 0
scalar HighwayScenario1.node[43].appl delayBSM_P2 0
scalar HighwayScenario1.node[43].nic.phy80211p busyTime 0
scalar HighwayScenario1.node[43].nic.mac1609_4 ReceivedUnicastPackets 0
scalar HighwayScenario1.node[43].nic.mac1609_4 ReceivedBroadcasts 0
scalar HighwayScenario1.node[43].nic.mac1609_4 SentPackets 0
scalar HighwayScenario1.node[43].nic.mac1609_4 SNIRLostPackets 0
scalar HighwayScenario1.node[43].nic.mac1609_4 RXTXLostPackets 0
scalar HighwayScenario1.node[43].nic.mac1609_4 TotalLostPackets 0
scalar HighwayScenario1.node[43].nic.mac1609_4 DroppedPacketsInMac 0
scalar HighwayScenario1.node[43].nic.mac1609_4 TooLittleTime 0
scalar HighwayScenario1.node[43].nic.mac1609_4 TimesIntoBackoff 0
scalar HighwayScenario1.node[43].nic.mac1609_4 SlotsBackoff 0
scalar HighwayScenario1.node[43].nic.mac1609_4 NumInternalContention 0
scalar HighwayScenario1.node[43].nic.mac1609_4 totalBusyTime 0
scalar HighwayScenario1.node[43].veinsmobility startTime 76
scalar HighwayScenario1.node[43].veinsmobility totalTime 172
scalar HighwayScenario1.node[43].veinsmobility stopTime 249
scalar HighwayScenario1.node[43].veinsmobility minSpeed 3.4291887211492
scalar HighwayScenario1.node[43].veinsmobility maxSpeed 33.074349448882
scalar HighwayScenario1.node[43].veinsmobility totalDistance 4976.9180303957
scalar HighwayScenario1.node[43].veinsmobility totalCO2Emission 1071.8697901168
scalar HighwayScenario1.node[4].appl generatedWSMs 0
scalar HighwayScenario1.node[4].appl receivedWSMs 57
scalar HighwayScenario1.node[4].appl generatedBSMs 0
scalar HighwayScenario1.node[4].appl receivedBSMs 1
scalar HighwayScenario1.node[4].appl generatedWSAs 0
scalar HighwayScenario1.node[4].appl receivedWSAs 0
scalar HighwayScenario1.node[4].appl delayBSM_P1 0.00010675463
scalar HighwayScenario1.node[4].appl delayBSM_P2 1.652399952001
scalar HighwayScenario1.node[4].nic.phy80211p busyTime 3.1623931623932e-005
scalar HighwayScenario1.node[4].nic.mac1609_4 ReceivedUnicastPackets 0
scalar HighwayScenario1.node[4].nic.mac1609_4 ReceivedBroadcasts 58
scalar HighwayScenario1.node[4].nic.mac1609_4 SentPackets 0
scalar HighwayScenario1.node[4].nic.mac1609_4 SNIRLostPackets 0
scalar HighwayScenario1.node[4].nic.mac1609_4 RXTXLostPackets 0
scalar HighwayScenario1.node[4].nic.mac1609_4 TotalLostPackets 0
scalar HighwayScenario1.node[4].nic.mac1609_4 DroppedPacketsInMac 0
scalar HighwayScenario1.node[4].nic.mac1609_4 TooLittleTime 0
scalar HighwayScenario1.node[4].nic.mac1609_4 TimesIntoBackoff 0
scalar HighwayScenario1.node[4].nic.mac1609_4 SlotsBackoff 0
scalar HighwayScenario1.node[4].nic.mac1609_4 NumInternalContention 0
scalar HighwayScenario1.node[4].nic.mac1609_4 totalBusyTime 0.0074
scalar HighwayScenario1.node[4].veinsmobility startTime 15
scalar HighwayScenario1.node[4].veinsmobility totalTime 233
scalar HighwayScenario1.node[4].veinsmobility stopTime 249
scalar HighwayScenario1.node[4].veinsmobility minSpeed 0
scalar HighwayScenario1.node[4].veinsmobility maxSpeed 30.547684268662
scalar HighwayScenario1.node[4].veinsmobility totalDistance 4965.1466721105
scalar HighwayScenario1.node[4].veinsmobility totalCO2Emission 1076.9370444896
scalar HighwayScenario1.node[47].appl generatedWSMs 0
scalar HighwayScenario1.node[47].appl receivedWSMs 0
scalar HighwayScenario1.node[47].appl generatedBSMs 0
scalar HighwayScenario1.node[47].appl receivedBSMs 0
scalar HighwayScenario1.node[47].appl generatedWSAs 0
scalar HighwayScenario1.node[47].appl receivedWSAs 0
scalar HighwayScenario1.node[47].appl delayBSM_P1 0
scalar HighwayScenario1.node[47].appl delayBSM_P2 0
scalar HighwayScenario1.node[47].nic.phy80211p busyTime 0
scalar HighwayScenario1.node[47].nic.mac1609_4 ReceivedUnicastPackets 0
scalar HighwayScenario1.node[47].nic.mac1609_4 ReceivedBroadcasts 0
scalar HighwayScenario1.node[47].nic.mac1609_4 SentPackets 0
scalar HighwayScenario1.node[47].nic.mac1609_4 SNIRLostPackets 0
scalar HighwayScenario1.node[47].nic.mac1609_4 RXTXLostPackets 0
scalar HighwayScenario1.node[47].nic.mac1609_4 TotalLostPackets 0
scalar HighwayScenario1.node[47].nic.mac1609_4 DroppedPacketsInMac 0
scalar HighwayScenario1.node[47].nic.mac1609_4 TooLittleTime 0
scalar HighwayScenario1.node[47].nic.mac1609_4 TimesIntoBackoff 0
scalar HighwayScenario1.node[47].nic.mac1609_4 SlotsBackoff 0
scalar HighwayScenario1.node[47].nic.mac1609_4 NumInternalContention 0
scalar HighwayScenario1.node[47].nic.mac1609_4 totalBusyTime 0
scalar HighwayScenario1.node[47].veinsmobility startTime 85
scalar HighwayScenario1.node[47].veinsmobility totalTime 165
scalar HighwayScenario1.node[47].veinsmobility stopTime 251
scalar HighwayScenario1.node[47].veinsmobility minSpeed 11.418266836032
scalar HighwayScenario1.node[47].veinsmobility maxSpeed 32.499580980078
scalar HighwayScenario1.node[47].veinsmobility totalDistance 4991.2847226686
scalar HighwayScenario1.node[47].veinsmobility totalCO2Emission 1010.7707460964
scalar HighwayScenario1.node[2].appl generatedWSMs 0
scalar HighwayScenario1.node[2].appl receivedWSMs 68
scalar HighwayScenario1.node[2].appl generatedBSMs 0
scalar HighwayScenario1.node[2].appl receivedBSMs 1
scalar HighwayScenario1.node[2].appl generatedWSAs 0
scalar HighwayScenario1.node[2].appl receivedWSAs 0
scalar HighwayScenario1.node[2].appl delayBSM_P1 0.000107167269
scalar HighwayScenario1.node[2].appl delayBSM_P2 0.51532777517025
scalar HighwayScenario1.node[2].nic.phy80211p busyTime 3.6853556485356e-005
scalar HighwayScenario1.node[2].nic.mac1609_4 ReceivedUnicastPackets 0
scalar HighwayScenario1.node[2].nic.mac1609_4 ReceivedBroadcasts 69
scalar HighwayScenario1.node[2].nic.mac1609_4 SentPackets 0
scalar HighwayScenario1.node[2].nic.mac1609_4 SNIRLostPackets 0
scalar HighwayScenario1.node[2].nic.mac1609_4 RXTXLostPackets 0
scalar HighwayScenario1.node[2].nic.mac1609_4 TotalLostPackets 0
scalar HighwayScenario1.node[2].nic.mac1609_4 DroppedPacketsInMac 0
scalar HighwayScenario1.node[2].nic.mac1609_4 TooLittleTime 0
scalar HighwayScenario1.node[2].nic.mac1609_4 TimesIntoBackoff 0
scalar HighwayScenario1.node[2].nic.mac1609_4 SlotsBackoff 0
scalar HighwayScenario1.node[2].nic.mac1609_4 NumInternalContention 0
scalar HighwayScenario1.node[2].nic.mac1609_4 totalBusyTime 0.008808
scalar HighwayScenario1.node[2].veinsmobility startTime 12
scalar HighwayScenario1.node[2].veinsmobility totalTime 238
scalar HighwayScenario1.node[2].veinsmobility stopTime 251
scalar HighwayScenario1.node[2].veinsmobility minSpeed 0
scalar HighwayScenario1.node[2].veinsmobility maxSpeed 33.731971482017
scalar HighwayScenario1.node[2].veinsmobility totalDistance 4984.0836260976
scalar HighwayScenario1.node[2].veinsmobility totalCO2Emission 1373.0668444523
scalar HighwayScenario1.node[45].appl generatedWSMs 0
scalar HighwayScenario1.node[45].appl receivedWSMs 0
scalar HighwayScenario1.node[45].appl generatedBSMs 0
scalar HighwayScenario1.node[45].appl receivedBSMs 0
scalar HighwayScenario1.node[45].appl generatedWSAs 0
scalar HighwayScenario1.node[45].appl receivedWSAs 0
scalar HighwayScenario1.node[45].appl delayBSM_P1 0
scalar HighwayScenario1.node[45].appl delayBSM_P2 0
scalar HighwayScenario1.node[45].nic.phy80211p busyTime 0
scalar HighwayScenario1.node[45].nic.mac1609_4 ReceivedUnicastPackets 0
scalar HighwayScenario1.node[45].nic.mac1609_4 ReceivedBroadcasts 0
scalar HighwayScenario1.node[45].nic.mac1609_4 SentPackets 0
scalar HighwayScenario1.node[45].nic.mac1609_4 SNIRLostPackets 0
scalar HighwayScenario1.node[45].nic.mac1609_4 RXTXLostPackets 0
scalar HighwayScenario1.node[45].nic.mac1609_4 TotalLostPackets 0
scalar HighwayScenario1.node[45].nic.mac1609_4 DroppedPacketsInMac 0
scalar HighwayScenario1.node[45].nic.mac1609_4 TooLittleTime 0
scalar HighwayScenario1.node[45].nic.mac1609_4 TimesIntoBackoff 0
scalar HighwayScenario1.node[45].nic.mac1609_4 SlotsBackoff 0
scalar HighwayScenario1.node[45].nic.mac1609_4 NumInternalContention 0
scalar HighwayScenario1.node[45].nic.mac1609_4 totalBusyTime 0
scalar HighwayScenario1.node[45].veinsmobility startTime 81
scalar HighwayScenario1.node[45].veinsmobility totalTime 170
scalar HighwayScenario1.node[45].veinsmobility stopTime 252
scalar HighwayScenario1.node[45].veinsmobility minSpeed 4.6640667772373
scalar HighwayScenario1.node[45].veinsmobility maxSpeed 33.694300411796
scalar HighwayScenario1.node[45].veinsmobility totalDistance 4979.8466085766
scalar HighwayScenario1.node[45].veinsmobility totalCO2Emission 1261.3173059925
scalar HighwayScenario1.node[49].appl generatedWSMs 0
scalar HighwayScenario1.node[49].appl receivedWSMs 0
scalar HighwayScenario1.node[49].appl generatedBSMs 0
scalar HighwayScenario1.node[49].appl receivedBSMs 0
scalar HighwayScenario1.node[49].appl generatedWSAs 0
scalar HighwayScenario1.node[49].appl receivedWSAs 0
scalar HighwayScenario1.node[49].appl delayBSM_P1 0
scalar HighwayScenario1.node[49].appl delayBSM_P2 0
scalar HighwayScenario1.node[49].nic.phy80211p busyTime 0
scalar HighwayScenario1.node[49].nic.mac1609_4 ReceivedUnicastPackets 0
scalar HighwayScenario1.node[49].nic.mac1609_4 ReceivedBroadcasts 0
scalar HighwayScenario1.node[49].nic.mac1609_4 SentPackets 0
scalar HighwayScenario1.node[49].nic.mac1609_4 SNIRLostPackets 0
scalar HighwayScenario1.node[49].nic.mac1609_4 RXTXLostPackets 0
scalar HighwayScenario1.node[49].nic.mac1609_4 TotalLostPackets 0
scalar HighwayScenario1.node[49].nic.mac1609_4 DroppedPacketsInMac 0
scalar HighwayScenario1.node[49].nic.mac1609_4 TooLittleTime 0
scalar HighwayScenario1.node[49].nic.mac1609_4 TimesIntoBackoff 0
scalar HighwayScenario1.node[49].nic.mac1609_4 SlotsBackoff 0
scalar HighwayScenario1.node[49].nic.mac1609_4 NumInternalContention 0
scalar HighwayScenario1.node[49].nic.mac1609_4 totalBusyTime 0
scalar HighwayScenario1.node[49].veinsmobility startTime 87
scalar HighwayScenario1.node[49].veinsmobility totalTime 167
scalar HighwayScenario1.node[49].veinsmobility stopTime 255
scalar HighwayScenario1.node[49].veinsmobility minSpeed 14.040545727839
scalar HighwayScenario1.node[49].veinsmobility maxSpeed 31.719090385194
scalar HighwayScenario1.node[49].veinsmobility totalDistance 4989.9781898703
scalar HighwayScenario1.node[49].veinsmobility totalCO2Emission 1051.5747559634
scalar HighwayScenario1.node[41].appl generatedWSMs 0
scalar HighwayScenario1.node[41].appl receivedWSMs 0
scalar HighwayScenario1.node[41].appl generatedBSMs 0
scalar HighwayScenario1.node[41].appl receivedBSMs 0
scalar HighwayScenario1.node[41].appl generatedWSAs 0
scalar HighwayScenario1.node[41].appl receivedWSAs 0
scalar HighwayScenario1.node[41].appl delayBSM_P1 0
scalar HighwayScenario1.node[41].appl delayBSM_P2 0
scalar HighwayScenario1.node[41].nic.phy80211p busyTime 0
scalar HighwayScenario1.node[41].nic.mac1609_4 ReceivedUnicastPackets 0
scalar HighwayScenario1.node[41].nic.mac1609_4 ReceivedBroadcasts 0
scalar HighwayScenario1.node[41].nic.mac1609_4 SentPackets 0
scalar HighwayScenario1.node[41].nic.mac1609_4 SNIRLostPackets 0
scalar HighwayScenario1.node[41].nic.mac1609_4 RXTXLostPackets 0
scalar HighwayScenario1.node[41].nic.mac1609_4 TotalLostPackets 0
scalar HighwayScenario1.node[41].nic.mac1609_4 DroppedPacketsInMac 0
scalar HighwayScenario1.node[41].nic.mac1609_4 TooLittleTime 0
scalar HighwayScenario1.node[41].nic.mac1609_4 TimesIntoBackoff 0
scalar HighwayScenario1.node[41].nic.mac1609_4 SlotsBackoff 0
scalar HighwayScenario1.node[41].nic.mac1609_4 NumInternalContention 0
scalar HighwayScenario1.node[41].nic.mac1609_4 totalBusyTime 0
scalar HighwayScenario1.node[41].veinsmobility startTime 74
scalar HighwayScenario1.node[41].veinsmobility totalTime 181
scalar HighwayScenario1.node[41].veinsmobility stopTime 256
scalar HighwayScenario1.node[41].veinsmobility minSpeed 0.015472099298114
scalar HighwayScenario1.node[41].veinsmobility maxSpeed 34.076995510994
scalar HighwayScenario1.node[41].veinsmobility totalDistance 4982.6122757354
scalar HighwayScenario1.node[41].veinsmobility totalCO2Emission 1101.1146088335
scalar HighwayScenario1.node[39].appl generatedWSMs 0
scalar HighwayScenario1.node[39].appl receivedWSMs 0
scalar HighwayScenario1.node[39].appl generatedBSMs 0
scalar HighwayScenario1.node[39].appl receivedBSMs 0
scalar HighwayScenario1.node[39].appl generatedWSAs 0
scalar HighwayScenario1.node[39].appl receivedWSAs 0
scalar HighwayScenario1.node[39].appl delayBSM_P1 0
scalar HighwayScenario1.node[39].appl delayBSM_P2 0
scalar HighwayScenario1.node[39].nic.phy80211p busyTime 0
scalar HighwayScenario1.node[39].nic.mac1609_4 ReceivedUnicastPackets 0
scalar HighwayScenario1.node[39].nic.mac1609_4 ReceivedBroadcasts 0
scalar HighwayScenario1.node[39].nic.mac1609_4 SentPackets 0
scalar HighwayScenario1.node[39].nic.mac1609_4 SNIRLostPackets 0
scalar HighwayScenario1.node[39].nic.mac1609_4 RXTXLostPackets 0
scalar HighwayScenario1.node[39].nic.mac1609_4 TotalLostPackets 0
scalar HighwayScenario1.node[39].nic.mac1609_4 DroppedPacketsInMac 0
scalar HighwayScenario1.node[39].nic.mac1609_4 TooLittleTime 0
scalar HighwayScenario1.node[39].nic.mac1609_4 TimesIntoBackoff 0
scalar HighwayScenario1.node[39].nic.mac1609_4 SlotsBackoff 0
scalar HighwayScenario1.node[39].nic.mac1609_4 NumInternalContention 0
scalar HighwayScenario1.node[39].nic.mac1609_4 totalBusyTime 0
scalar HighwayScenario1.node[39].veinsmobility startTime 71
scalar HighwayScenario1.node[39].veinsmobility totalTime 184
scalar HighwayScenario1.node[39].veinsmobility stopTime 256
scalar HighwayScenario1.node[39].veinsmobility minSpeed 0.85277954779617
scalar HighwayScenario1.node[39].veinsmobility maxSpeed 29.882741036271
scalar HighwayScenario1.node[39].veinsmobility totalDistance 4992.6210492886
scalar HighwayScenario1.node[39].veinsmobility totalCO2Emission 951.50653368163
scalar HighwayScenario1.node[50].appl generatedWSMs 0
scalar HighwayScenario1.node[50].appl receivedWSMs 0
scalar HighwayScenario1.node[50].appl generatedBSMs 0
scalar HighwayScenario1.node[50].appl receivedBSMs 0
scalar HighwayScenario1.node[50].appl generatedWSAs 0
scalar HighwayScenario1.node[50].appl receivedWSAs 0
scalar HighwayScenario1.node[50].appl delayBSM_P1 0
scalar HighwayScenario1.node[50].appl delayBSM_P2 0
scalar HighwayScenario1.node[50].nic.phy80211p busyTime 0
scalar HighwayScenario1.node[50].nic.mac1609_4 ReceivedUnicastPackets 0
scalar HighwayScenario1.node[50].nic.mac1609_4 ReceivedBroadcasts 0
scalar HighwayScenario1.node[50].nic.mac1609_4 SentPackets 0
scalar HighwayScenario1.node[50].nic.mac1609_4 SNIRLostPackets 0
scalar HighwayScenario1.node[50].nic.mac1609_4 RXTXLostPackets 0
scalar HighwayScenario1.node[50].nic.mac1609_4 TotalLostPackets 0
scalar HighwayScenario1.node[50].nic.mac1609_4 DroppedPacketsInMac 0
scalar HighwayScenario1.node[50].nic.mac1609_4 TooLittleTime 0
scalar HighwayScenario1.node[50].nic.mac1609_4 TimesIntoBackoff 0
scalar HighwayScenario1.node[50].nic.mac1609_4 SlotsBackoff 0
scalar HighwayScenario1.node[50].nic.mac1609_4 NumInternalContention 0
scalar HighwayScenario1.node[50].nic.mac1609_4 totalBusyTime 0
scalar HighwayScenario1.node[50].veinsmobility startTime 88
scalar HighwayScenario1.node[50].veinsmobility totalTime 168
scalar HighwayScenario1.node[50].veinsmobility stopTime 257
scalar HighwayScenario1.node[50].veinsmobility minSpeed 1.6539084592112
scalar HighwayScenario1.node[50].veinsmobility maxSpeed 34.771422620787
scalar HighwayScenario1.node[50].veinsmobility totalDistance 4970.0305503608
scalar HighwayScenario1.node[50].veinsmobility totalCO2Emission 1084.3301883467
scalar HighwayScenario1.node[44].appl generatedWSMs 0
scalar HighwayScenario1.node[44].appl receivedWSMs 0
scalar HighwayScenario1.node[44].appl generatedBSMs 0
scalar HighwayScenario1.node[44].appl receivedBSMs 0
scalar HighwayScenario1.node[44].appl generatedWSAs 0
scalar HighwayScenario1.node[44].appl receivedWSAs 0
scalar HighwayScenario1.node[44].appl delayBSM_P1 0
scalar HighwayScenario1.node[44].appl delayBSM_P2 0
scalar HighwayScenario1.node[44].nic.phy80211p busyTime 0
scalar HighwayScenario1.node[44].nic.mac1609_4 ReceivedUnicastPackets 0
scalar HighwayScenario1.node[44].nic.mac1609_4 ReceivedBroadcasts 0
scalar HighwayScenario1.node[44].nic.mac1609_4 SentPackets 0
scalar HighwayScenario1.node[44].nic.mac1609_4 SNIRLostPackets 0
scalar HighwayScenario1.node[44].nic.mac1609_4 RXTXLostPackets 0
scalar HighwayScenario1.node[44].nic.mac1609_4 TotalLostPackets 0
scalar HighwayScenario1.node[44].nic.mac1609_4 DroppedPacketsInMac 0
scalar HighwayScenario1.node[44].nic.mac1609_4 TooLittleTime 0
scalar HighwayScenario1.node[44].nic.mac1609_4 TimesIntoBackoff 0
scalar HighwayScenario1.node[44].nic.mac1609_4 SlotsBackoff 0
scalar HighwayScenario1.node[44].nic.mac1609_4 NumInternalContention 0
scalar HighwayScenario1.node[44].nic.mac1609_4 totalBusyTime 0
scalar HighwayScenario1.node[44].veinsmobility startTime 78
scalar HighwayScenario1.node[44].veinsmobility totalTime 178
scalar HighwayScenario1.node[44].veinsmobility stopTime 257
scalar HighwayScenario1.node[44].veinsmobility minSpeed 4.7751547883143
scalar HighwayScenario1.node[44].veinsmobility maxSpeed 30.87605589687
scalar HighwayScenario1.node[44].veinsmobility totalDistance 4979.6295266802
scalar HighwayScenario1.node[44].veinsmobility totalCO2Emission 1072.8028426536
scalar HighwayScenario1.node[30].appl generatedWSMs 0
scalar HighwayScenario1.node[30].appl receivedWSMs 0
scalar HighwayScenario1.node[30].appl generatedBSMs 0
scalar HighwayScenario1.node[30].appl receivedBSMs 0
scalar HighwayScenario1.node[30].appl generatedWSAs 0
scalar HighwayScenario1.node[30].appl receivedWSAs 0
scalar HighwayScenario1.node[30].appl delayBSM_P1 0
scalar HighwayScenario1.node[30].appl delayBSM_P2 0
scalar HighwayScenario1.node[30].nic.phy80211p busyTime 0
scalar HighwayScenario1.node[30].nic.mac1609_4 ReceivedUnicastPackets 0
scalar HighwayScenario1.node[30].nic.mac1609_4 ReceivedBroadcasts 0
scalar HighwayScenario1.node[30].nic.mac1609_4 SentPackets 0
scalar HighwayScenario1.node[30].nic.mac1609_4 SNIRLostPackets 0
scalar HighwayScenario1.node[30].nic.mac1609_4 RXTXLostPackets 0
scalar HighwayScenario1.node[30].nic.mac1609_4 TotalLostPackets 0
scalar HighwayScenario1.node[30].nic.mac1609_4 DroppedPacketsInMac 0
scalar HighwayScenario1.node[30].nic.mac1609_4 TooLittleTime 0
scalar HighwayScenario1.node[30].nic.mac1609_4 TimesIntoBackoff 0
scalar HighwayScenario1.node[30].nic.mac1609_4 SlotsBackoff 0
scalar HighwayScenario1.node[30].nic.mac1609_4 NumInternalContention 0
scalar HighwayScenario1.node[30].nic.mac1609_4 totalBusyTime 0
scalar HighwayScenario1.node[30].veinsmobility startTime 56
scalar HighwayScenario1.node[30].veinsmobility totalTime 202
scalar HighwayScenario1.node[30].veinsmobility stopTime 259
scalar HighwayScenario1.node[30].veinsmobility minSpeed 0.0029531125784972
scalar HighwayScenario1.node[30].veinsmobility maxSpeed 33.016682391661
scalar HighwayScenario1.node[30].veinsmobility totalDistance 4994.0937198965
scalar HighwayScenario1.node[30].veinsmobility totalCO2Emission 1125.9526150376
scalar HighwayScenario1.node[51].appl generatedWSMs 0
scalar HighwayScenario1.node[51].appl receivedWSMs 0
scalar HighwayScenario1.node[51].appl generatedBSMs 0
scalar HighwayScenario1.node[51].appl receivedBSMs 0
scalar HighwayScenario1.node[51].appl generatedWSAs 0
scalar HighwayScenario1.node[51].appl receivedWSAs 0
scalar HighwayScenario1.node[51].appl delayBSM_P1 0
scalar HighwayScenario1.node[51].appl delayBSM_P2 0
scalar HighwayScenario1.node[51].nic.phy80211p busyTime 0
scalar HighwayScenario1.node[51].nic.mac1609_4 ReceivedUnicastPackets 0
scalar HighwayScenario1.node[51].nic.mac1609_4 ReceivedBroadcasts 0
scalar HighwayScenario1.node[51].nic.mac1609_4 SentPackets 0
scalar HighwayScenario1.node[51].nic.mac1609_4 SNIRLostPackets 0
scalar HighwayScenario1.node[51].nic.mac1609_4 RXTXLostPackets 0
scalar HighwayScenario1.node[51].nic.mac1609_4 TotalLostPackets 0
scalar HighwayScenario1.node[51].nic.mac1609_4 DroppedPacketsInMac 0
scalar HighwayScenario1.node[51].nic.mac1609_4 TooLittleTime 0
scalar HighwayScenario1.node[51].nic.mac1609_4 TimesIntoBackoff 0
scalar HighwayScenario1.node[51].nic.mac1609_4 SlotsBackoff 0
scalar HighwayScenario1.node[51].nic.mac1609_4 NumInternalContention 0
scalar HighwayScenario1.node[51].nic.mac1609_4 totalBusyTime 0
scalar HighwayScenario1.node[51].veinsmobility startTime 89
scalar HighwayScenario1.node[51].veinsmobility totalTime 169
scalar HighwayScenario1.node[51].veinsmobility stopTime 259
scalar HighwayScenario1.node[51].veinsmobility minSpeed 15.187574612043
scalar HighwayScenario1.node[51].veinsmobility maxSpeed 31.194220256925
scalar HighwayScenario1.node[51].veinsmobility totalDistance 4989.3387250667
scalar HighwayScenario1.node[51].veinsmobility totalCO2Emission 1065.2020225388
scalar HighwayScenario1.node[55].appl generatedWSMs 0
scalar HighwayScenario1.node[55].appl receivedWSMs 0
scalar HighwayScenario1.node[55].appl generatedBSMs 0
scalar HighwayScenario1.node[55].appl receivedBSMs 0
scalar HighwayScenario1.node[55].appl generatedWSAs 0
scalar HighwayScenario1.node[55].appl receivedWSAs 0
scalar HighwayScenario1.node[55].appl delayBSM_P1 0
scalar HighwayScenario1.node[55].appl delayBSM_P2 0
scalar HighwayScenario1.node[55].nic.phy80211p busyTime 0
scalar HighwayScenario1.node[55].nic.mac1609_4 ReceivedUnicastPackets 0
scalar HighwayScenario1.node[55].nic.mac1609_4 ReceivedBroadcasts 0
scalar HighwayScenario1.node[55].nic.mac1609_4 SentPackets 0
scalar HighwayScenario1.node[55].nic.mac1609_4 SNIRLostPackets 0
scalar HighwayScenario1.node[55].nic.mac1609_4 RXTXLostPackets 0
scalar HighwayScenario1.node[55].nic.mac1609_4 TotalLostPackets 0
scalar HighwayScenario1.node[55].nic.mac1609_4 DroppedPacketsInMac 0
scalar HighwayScenario1.node[55].nic.mac1609_4 TooLittleTime 0
scalar HighwayScenario1.node[55].nic.mac1609_4 TimesIntoBackoff 0
scalar HighwayScenario1.node[55].nic.mac1609_4 SlotsBackoff 0
scalar HighwayScenario1.node[55].nic.mac1609_4 NumInternalContention 0
scalar HighwayScenario1.node[55].nic.mac1609_4 totalBusyTime 0
scalar HighwayScenario1.node[55].veinsmobility startTime 95
scalar HighwayScenario1.node[55].veinsmobility totalTime 165
scalar HighwayScenario1.node[55].veinsmobility stopTime 261
scalar HighwayScenario1.node[55].veinsmobility minSpeed 4.7051376838679
scalar HighwayScenario1.node[55].veinsmobility maxSpeed 33.564379608479
scalar HighwayScenario1.node[55].veinsmobility totalDistance 4977.074423701
scalar HighwayScenario1.node[55].veinsmobility totalCO2Emission 1066.9561318049
scalar HighwayScenario1.node[5].appl generatedWSMs 0
scalar HighwayScenario1.node[5].appl receivedWSMs 54
scalar HighwayScenario1.node[5].appl generatedBSMs 0
scalar HighwayScenario1.node[5].appl receivedBSMs 1
scalar HighwayScenario1.node[5].appl generatedWSAs 0
scalar HighwayScenario1.node[5].appl receivedWSAs 0
scalar HighwayScenario1.node[5].appl delayBSM_P1 0.000106590399
scalar HighwayScenario1.node[5].appl delayBSM_P2 2.8130629780024
scalar HighwayScenario1.node[5].nic.phy80211p busyTime 2.8754098360656e-005
scalar HighwayScenario1.node[5].nic.mac1609_4 ReceivedUnicastPackets 0
scalar HighwayScenario1.node[5].nic.mac1609_4 ReceivedBroadcasts 55
scalar HighwayScenario1.node[5].nic.mac1609_4 SentPackets 0
scalar HighwayScenario1.node[5].nic.mac1609_4 SNIRLostPackets 0
scalar HighwayScenario1.node[5].nic.mac1609_4 RXTXLostPackets 0
scalar HighwayScenario1.node[5].nic.mac1609_4 TotalLostPackets 0
scalar HighwayScenario1.node[5].nic.mac1609_4 DroppedPacketsInMac 0
scalar HighwayScenario1.node[5].nic.mac1609_4 TooLittleTime 0
scalar HighwayScenario1.node[5].nic.mac1609_4 TimesIntoBackoff 0
scalar HighwayScenario1.node[5].nic.mac1609_4 SlotsBackoff 0
scalar HighwayScenario1.node[5].nic.mac1609_4 NumInternalContention 0
scalar HighwayScenario1.node[5].nic.mac1609_4 totalBusyTime 0.007016
scalar HighwayScenario1.node[5].veinsmobility startTime 17
scalar HighwayScenario1.node[5].veinsmobility totalTime 243
scalar HighwayScenario1.node[5].veinsmobility stopTime 261
scalar HighwayScenario1.node[5].veinsmobility minSpeed 0
scalar HighwayScenario1.node[5].veinsmobility maxSpeed 31.919257777309
scalar HighwayScenario1.node[5].veinsmobility totalDistance 4987.1965310512
scalar HighwayScenario1.node[5].veinsmobility totalCO2Emission 1085.1309801481
scalar HighwayScenario1.node[46].appl generatedWSMs 0
scalar HighwayScenario1.node[46].appl receivedWSMs 0
scalar HighwayScenario1.node[46].appl generatedBSMs 0
scalar HighwayScenario1.node[46].appl receivedBSMs 0
scalar HighwayScenario1.node[46].appl generatedWSAs 0
scalar HighwayScenario1.node[46].appl receivedWSAs 0
scalar HighwayScenario1.node[46].appl delayBSM_P1 0
scalar HighwayScenario1.node[46].appl delayBSM_P2 0
scalar HighwayScenario1.node[46].nic.phy80211p busyTime 0
scalar HighwayScenario1.node[46].nic.mac1609_4 ReceivedUnicastPackets 0
scalar HighwayScenario1.node[46].nic.mac1609_4 ReceivedBroadcasts 0
scalar HighwayScenario1.node[46].nic.mac1609_4 SentPackets 0
scalar HighwayScenario1.node[46].nic.mac1609_4 SNIRLostPackets 0
scalar HighwayScenario1.node[46].nic.mac1609_4 RXTXLostPackets 0
scalar HighwayScenario1.node[46].nic.mac1609_4 TotalLostPackets 0
scalar HighwayScenario1.node[46].nic.mac1609_4 DroppedPacketsInMac 0
scalar HighwayScenario1.node[46].nic.mac1609_4 TooLittleTime 0
scalar HighwayScenario1.node[46].nic.mac1609_4 TimesIntoBackoff 0
scalar HighwayScenario1.node[46].nic.mac1609_4 SlotsBackoff 0
scalar HighwayScenario1.node[46].nic.mac1609_4 NumInternalContention 0
scalar HighwayScenario1.node[46].nic.mac1609_4 totalBusyTime 0
scalar HighwayScenario1.node[46].veinsmobility startTime 84
scalar HighwayScenario1.node[46].veinsmobility totalTime 179
scalar HighwayScenario1.node[46].veinsmobility stopTime 264
scalar HighwayScenario1.node[46].veinsmobility minSpeed 0.1861804113467
scalar HighwayScenario1.node[46].veinsmobility maxSpeed 31.71568248524
scalar HighwayScenario1.node[46].veinsmobility totalDistance 4973.8729626412
scalar HighwayScenario1.node[46].veinsmobility totalCO2Emission 1004.6963633203
scalar HighwayScenario1.node[53].appl generatedWSMs 0
scalar HighwayScenario1.node[53].appl receivedWSMs 0
scalar HighwayScenario1.node[53].appl generatedBSMs 0
scalar HighwayScenario1.node[53].appl receivedBSMs 0
[...]
scalar HighwayScenario1.node[83].veinsmobility minSpeed 20.975390013441
scalar HighwayScenario1.node[83].veinsmobility maxSpeed 29.952985246569
scalar HighwayScenario1.node[83].veinsmobility totalDistance 4975.4304381327
scalar HighwayScenario1.node[83].veinsmobility totalCO2Emission 1007.0847070004
scalar HighwayScenario1.node[89].appl generatedWSMs 0
scalar HighwayScenario1.node[89].appl receivedWSMs 0
scalar HighwayScenario1.node[89].appl generatedBSMs 0
scalar HighwayScenario1.node[89].appl receivedBSMs 0
scalar HighwayScenario1.node[89].appl generatedWSAs 0
scalar HighwayScenario1.node[89].appl receivedWSAs 0
scalar HighwayScenario1.node[89].appl delayBSM_P1 0
scalar HighwayScenario1.node[89].appl delayBSM_P2 0
scalar HighwayScenario1.node[89].nic.phy80211p busyTime 0
scalar HighwayScenario1.node[89].nic.mac1609_4 ReceivedUnicastPackets 0
scalar HighwayScenario1.node[89].nic.mac1609_4 ReceivedBroadcasts 0
scalar HighwayScenario1.node[89].nic.mac1609_4 SentPackets 0
scalar HighwayScenario1.node[89].nic.mac1609_4 SNIRLostPackets 0
scalar HighwayScenario1.node[89].nic.mac1609_4 RXTXLostPackets 0
scalar HighwayScenario1.node[89].nic.mac1609_4 TotalLostPackets 0
scalar HighwayScenario1.node[89].nic.mac1609_4 DroppedPacketsInMac 0
scalar HighwayScenario1.node[89].nic.mac1609_4 TooLittleTime 0
scalar HighwayScenario1.node[89].nic.mac1609_4 TimesIntoBackoff 0
scalar HighwayScenario1.node[89].nic.mac1609_4 SlotsBackoff 0
scalar HighwayScenario1.node[89].nic.mac1609_4 NumInternalContention 0
scalar HighwayScenario1.node[89].nic.mac1609_4 totalBusyTime 0
scalar HighwayScenario1.node[89].veinsmobility startTime 164
scalar HighwayScenario1.node[89].veinsmobility totalTime 166
scalar HighwayScenario1.node[89].veinsmobility stopTime 331
scalar HighwayScenario1.node[89].veinsmobility minSpeed 19.263863009489
scalar HighwayScenario1.node[89].veinsmobility maxSpeed 31.769239136205
scalar HighwayScenario1.node[89].veinsmobility totalDistance 4968.0505009951
scalar HighwayScenario1.node[89].veinsmobility totalCO2Emission 1080.6008248702
scalar HighwayScenario1.node[85].appl generatedWSMs 0
scalar HighwayScenario1.node[85].appl receivedWSMs 0
scalar HighwayScenario1.node[85].appl generatedBSMs 0
scalar HighwayScenario1.node[85].appl receivedBSMs 0
scalar HighwayScenario1.node[85].appl generatedWSAs 0
scalar HighwayScenario1.node[85].appl receivedWSAs 0
scalar HighwayScenario1.node[85].appl delayBSM_P1 0
scalar HighwayScenario1.node[85].appl delayBSM_P2 0
scalar HighwayScenario1.node[85].nic.phy80211p busyTime 0
scalar HighwayScenario1.node[85].nic.mac1609_4 ReceivedUnicastPackets 0
scalar HighwayScenario1.node[85].nic.mac1609_4 ReceivedBroadcasts 0
scalar HighwayScenario1.node[85].nic.mac1609_4 SentPackets 0
scalar HighwayScenario1.node[85].nic.mac1609_4 SNIRLostPackets 0
scalar HighwayScenario1.node[85].nic.mac1609_4 RXTXLostPackets 0
scalar HighwayScenario1.node[85].nic.mac1609_4 TotalLostPackets 0
scalar HighwayScenario1.node[85].nic.mac1609_4 DroppedPacketsInMac 0
scalar HighwayScenario1.node[85].nic.mac1609_4 TooLittleTime 0
scalar HighwayScenario1.node[85].nic.mac1609_4 TimesIntoBackoff 0
scalar HighwayScenario1.node[85].nic.mac1609_4 SlotsBackoff 0
scalar HighwayScenario1.node[85].nic.mac1609_4 NumInternalContention 0
scalar HighwayScenario1.node[85].nic.mac1609_4 totalBusyTime 0
scalar HighwayScenario1.node[85].veinsmobility startTime 158
scalar HighwayScenario1.node[85].veinsmobility totalTime 172
scalar HighwayScenario1.node[85].veinsmobility stopTime 331
scalar HighwayScenario1.node[85].veinsmobility minSpeed 19.027026117957
scalar HighwayScenario1.node[85].veinsmobility maxSpeed 31.056641639212
scalar HighwayScenario1.node[85].veinsmobility totalDistance 4965.2755954232
scalar HighwayScenario1.node[85].veinsmobility totalCO2Emission 1132.0757205284
scalar HighwayScenario1.node[94].appl generatedWSMs 0
scalar HighwayScenario1.node[94].appl receivedWSMs 0
scalar HighwayScenario1.node[94].appl generatedBSMs 0
scalar HighwayScenario1.node[94].appl receivedBSMs 0
scalar HighwayScenario1.node[94].appl generatedWSAs 0
scalar HighwayScenario1.node[94].appl receivedWSAs 0
scalar HighwayScenario1.node[94].appl delayBSM_P1 0
scalar HighwayScenario1.node[94].appl delayBSM_P2 0
scalar HighwayScenario1.node[94].nic.phy80211p busyTime 0
scalar HighwayScenario1.node[94].nic.mac1609_4 ReceivedUnicastPackets 0
scalar HighwayScenario1.node[94].nic.mac1609_4 ReceivedBroadcasts 0
scalar HighwayScenario1.node[94].nic.mac1609_4 SentPackets 0
scalar HighwayScenario1.node[94].nic.mac1609_4 SNIRLostPackets 0
scalar HighwayScenario1.node[94].nic.mac1609_4 RXTXLostPackets 0
scalar HighwayScenario1.node[94].nic.mac1609_4 TotalLostPackets 0
scalar HighwayScenario1.node[94].nic.mac1609_4 DroppedPacketsInMac 0
scalar HighwayScenario1.node[94].nic.mac1609_4 TooLittleTime 0
scalar HighwayScenario1.node[94].nic.mac1609_4 TimesIntoBackoff 0
scalar HighwayScenario1.node[94].nic.mac1609_4 SlotsBackoff 0
scalar HighwayScenario1.node[94].nic.mac1609_4 NumInternalContention 0
scalar HighwayScenario1.node[94].nic.mac1609_4 totalBusyTime 0
scalar HighwayScenario1.node[94].veinsmobility startTime 175
scalar HighwayScenario1.node[94].veinsmobility totalTime 157
scalar HighwayScenario1.node[94].veinsmobility stopTime 333
scalar HighwayScenario1.node[94].veinsmobility minSpeed 29.606226695286
scalar HighwayScenario1.node[94].veinsmobility maxSpeed 32.360748126513
scalar HighwayScenario1.node[94].veinsmobility totalDistance 4979.1337345479
scalar HighwayScenario1.node[94].veinsmobility totalCO2Emission 896.05725285547
scalar HighwayScenario1.node[90].appl generatedWSMs 0
scalar HighwayScenario1.node[90].appl receivedWSMs 0
scalar HighwayScenario1.node[90].appl generatedBSMs 0
scalar HighwayScenario1.node[90].appl receivedBSMs 0
scalar HighwayScenario1.node[90].appl generatedWSAs 0
scalar HighwayScenario1.node[90].appl receivedWSAs 0
scalar HighwayScenario1.node[90].appl delayBSM_P1 0
scalar HighwayScenario1.node[90].appl delayBSM_P2 0
scalar HighwayScenario1.node[90].nic.phy80211p busyTime 0
scalar HighwayScenario1.node[90].nic.mac1609_4 ReceivedUnicastPackets 0
scalar HighwayScenario1.node[90].nic.mac1609_4 ReceivedBroadcasts 0
scalar HighwayScenario1.node[90].nic.mac1609_4 SentPackets 0
scalar HighwayScenario1.node[90].nic.mac1609_4 SNIRLostPackets 0
scalar HighwayScenario1.node[90].nic.mac1609_4 RXTXLostPackets 0
scalar HighwayScenario1.node[90].nic.mac1609_4 TotalLostPackets 0
scalar HighwayScenario1.node[90].nic.mac1609_4 DroppedPacketsInMac 0
scalar HighwayScenario1.node[90].nic.mac1609_4 TooLittleTime 0
scalar HighwayScenario1.node[90].nic.mac1609_4 TimesIntoBackoff 0
scalar HighwayScenario1.node[90].nic.mac1609_4 SlotsBackoff 0
scalar HighwayScenario1.node[90].nic.mac1609_4 NumInternalContention 0
scalar HighwayScenario1.node[90].nic.mac1609_4 totalBusyTime 0
scalar HighwayScenario1.node[90].veinsmobility startTime 166
scalar HighwayScenario1.node[90].veinsmobility totalTime 166
scalar HighwayScenario1.node[90].veinsmobility stopTime 333
scalar HighwayScenario1.node[90].veinsmobility minSpeed 21.428281853391
scalar HighwayScenario1.node[90].veinsmobility maxSpeed 34.02070173383
scalar HighwayScenario1.node[90].veinsmobility totalDistance 4986.9466712832
scalar HighwayScenario1.node[90].veinsmobility totalCO2Emission 1303.6238587021
scalar HighwayScenario1.node[97].appl generatedWSMs 0
scalar HighwayScenario1.node[97].appl receivedWSMs 0
scalar HighwayScenario1.node[97].appl generatedBSMs 0
scalar HighwayScenario1.node[97].appl receivedBSMs 0
scalar HighwayScenario1.node[97].appl generatedWSAs 0
scalar HighwayScenario1.node[97].appl receivedWSAs 0
scalar HighwayScenario1.node[97].appl delayBSM_P1 0
scalar HighwayScenario1.node[97].appl delayBSM_P2 0
scalar HighwayScenario1.node[97].nic.phy80211p busyTime 0
scalar HighwayScenario1.node[97].nic.mac1609_4 ReceivedUnicastPackets 0
scalar HighwayScenario1.node[97].nic.mac1609_4 ReceivedBroadcasts 0
scalar HighwayScenario1.node[97].nic.mac1609_4 SentPackets 0
scalar HighwayScenario1.node[97].nic.mac1609_4 SNIRLostPackets 0
scalar HighwayScenario1.node[97].nic.mac1609_4 RXTXLostPackets 0
scalar HighwayScenario1.node[97].nic.mac1609_4 TotalLostPackets 0
scalar HighwayScenario1.node[97].nic.mac1609_4 DroppedPacketsInMac 0
scalar HighwayScenario1.node[97].nic.mac1609_4 TooLittleTime 0
scalar HighwayScenario1.node[97].nic.mac1609_4 TimesIntoBackoff 0
scalar HighwayScenario1.node[97].nic.mac1609_4 SlotsBackoff 0
scalar HighwayScenario1.node[97].nic.mac1609_4 NumInternalContention 0
scalar HighwayScenario1.node[97].nic.mac1609_4 totalBusyTime 0
scalar HighwayScenario1.node[97].veinsmobility startTime 180
scalar HighwayScenario1.node[97].veinsmobility totalTime 156
scalar HighwayScenario1.node[97].veinsmobility stopTime 337
scalar HighwayScenario1.node[97].veinsmobility minSpeed 30.681233479474
scalar HighwayScenario1.node[97].veinsmobility maxSpeed 32.672083990688
scalar HighwayScenario1.node[97].veinsmobility totalDistance 4992.1350470809
scalar HighwayScenario1.node[97].veinsmobility totalCO2Emission 891.30083365713
scalar HighwayScenario1.node[95].appl generatedWSMs 0
scalar HighwayScenario1.node[95].appl receivedWSMs 0
scalar HighwayScenario1.node[95].appl generatedBSMs 0
scalar HighwayScenario1.node[95].appl receivedBSMs 0
scalar HighwayScenario1.node[95].appl generatedWSAs 0
scalar HighwayScenario1.node[95].appl receivedWSAs 0
scalar HighwayScenario1.node[95].appl delayBSM_P1 0
scalar HighwayScenario1.node[95].appl delayBSM_P2 0
scalar HighwayScenario1.node[95].nic.phy80211p busyTime 0
scalar HighwayScenario1.node[95].nic.mac1609_4 ReceivedUnicastPackets 0
scalar HighwayScenario1.node[95].nic.mac1609_4 ReceivedBroadcasts 0
scalar HighwayScenario1.node[95].nic.mac1609_4 SentPackets 0
scalar HighwayScenario1.node[95].nic.mac1609_4 SNIRLostPackets 0
scalar HighwayScenario1.node[95].nic.mac1609_4 RXTXLostPackets 0
scalar HighwayScenario1.node[95].nic.mac1609_4 TotalLostPackets 0
scalar HighwayScenario1.node[95].nic.mac1609_4 DroppedPacketsInMac 0
scalar HighwayScenario1.node[95].nic.mac1609_4 TooLittleTime 0
scalar HighwayScenario1.node[95].nic.mac1609_4 TimesIntoBackoff 0
scalar HighwayScenario1.node[95].nic.mac1609_4 SlotsBackoff 0
scalar HighwayScenario1.node[95].nic.mac1609_4 NumInternalContention 0
scalar HighwayScenario1.node[95].nic.mac1609_4 totalBusyTime 0
scalar HighwayScenario1.node[95].veinsmobility startTime 176
scalar HighwayScenario1.node[95].veinsmobility totalTime 161
scalar HighwayScenario1.node[95].veinsmobility stopTime 338
scalar HighwayScenario1.node[95].veinsmobility minSpeed 29.32471841385
scalar HighwayScenario1.node[95].veinsmobility maxSpeed 31.578915226617
scalar HighwayScenario1.node[95].veinsmobility totalDistance 4973.9436738169
scalar HighwayScenario1.node[95].veinsmobility totalCO2Emission 902.83357907173
scalar HighwayScenario1.node[99].appl generatedWSMs 0
scalar HighwayScenario1.node[99].appl receivedWSMs 0
scalar HighwayScenario1.node[99].appl generatedBSMs 0
scalar HighwayScenario1.node[99].appl receivedBSMs 0
scalar HighwayScenario1.node[99].appl generatedWSAs 0
scalar HighwayScenario1.node[99].appl receivedWSAs 0
scalar HighwayScenario1.node[99].appl delayBSM_P1 0
scalar HighwayScenario1.node[99].appl delayBSM_P2 0
scalar HighwayScenario1.node[99].nic.phy80211p busyTime 0
scalar HighwayScenario1.node[99].nic.mac1609_4 ReceivedUnicastPackets 0
scalar HighwayScenario1.node[99].nic.mac1609_4 ReceivedBroadcasts 0
scalar HighwayScenario1.node[99].nic.mac1609_4 SentPackets 0
scalar HighwayScenario1.node[99].nic.mac1609_4 SNIRLostPackets 0
scalar HighwayScenario1.node[99].nic.mac1609_4 RXTXLostPackets 0
scalar HighwayScenario1.node[99].nic.mac1609_4 TotalLostPackets 0
scalar HighwayScenario1.node[99].nic.mac1609_4 DroppedPacketsInMac 0
scalar HighwayScenario1.node[99].nic.mac1609_4 TooLittleTime 0
scalar HighwayScenario1.node[99].nic.mac1609_4 TimesIntoBackoff 0
scalar HighwayScenario1.node[99].nic.mac1609_4 SlotsBackoff 0
scalar HighwayScenario1.node[99].nic.mac1609_4 NumInternalContention 0
scalar HighwayScenario1.node[99].nic.mac1609_4 totalBusyTime 0
scalar HighwayScenario1.node[99].veinsmobility startTime 184
scalar HighwayScenario1.node[99].veinsmobility totalTime 155
scalar HighwayScenario1.node[99].veinsmobility stopTime 340
scalar HighwayScenario1.node[99].veinsmobility minSpeed 31.37040202514
scalar HighwayScenario1.node[99].veinsmobility maxSpeed 32.604393565934
scalar HighwayScenario1.node[99].veinsmobility totalDistance 4963.9216104757
scalar HighwayScenario1.node[99].veinsmobility totalCO2Emission 890.08728233951
scalar HighwayScenario1.node[101].appl generatedWSMs 0
scalar HighwayScenario1.node[101].appl receivedWSMs 0
scalar HighwayScenario1.node[101].appl generatedBSMs 0
scalar HighwayScenario1.node[101].appl receivedBSMs 0
scalar HighwayScenario1.node[101].appl generatedWSAs 0
scalar HighwayScenario1.node[101].appl receivedWSAs 0
scalar HighwayScenario1.node[101].appl delayBSM_P1 0
scalar HighwayScenario1.node[101].appl delayBSM_P2 0
scalar HighwayScenario1.node[101].nic.phy80211p busyTime 0
scalar HighwayScenario1.node[101].nic.mac1609_4 ReceivedUnicastPackets 0
scalar HighwayScenario1.node[101].nic.mac1609_4 ReceivedBroadcasts 0
scalar HighwayScenario1.node[101].nic.mac1609_4 SentPackets 0
scalar HighwayScenario1.node[101].nic.mac1609_4 SNIRLostPackets 0
scalar HighwayScenario1.node[101].nic.mac1609_4 RXTXLostPackets 0
scalar HighwayScenario1.node[101].nic.mac1609_4 TotalLostPackets 0
scalar HighwayScenario1.node[101].nic.mac1609_4 DroppedPacketsInMac 0
scalar HighwayScenario1.node[101].nic.mac1609_4 TooLittleTime 0
scalar HighwayScenario1.node[101].nic.mac1609_4 TimesIntoBackoff 0
scalar HighwayScenario1.node[101].nic.mac1609_4 SlotsBackoff 0
scalar HighwayScenario1.node[101].nic.mac1609_4 NumInternalContention 0
scalar HighwayScenario1.node[101].nic.mac1609_4 totalBusyTime 0
scalar HighwayScenario1.node[101].veinsmobility startTime 188
scalar HighwayScenario1.node[101].veinsmobility totalTime 159
scalar HighwayScenario1.node[101].veinsmobility stopTime 348
scalar HighwayScenario1.node[101].veinsmobility minSpeed 29.484738480187
scalar HighwayScenario1.node[101].veinsmobility maxSpeed 32.081343624615
scalar HighwayScenario1.node[101].veinsmobility totalDistance 4993.2339219156
scalar HighwayScenario1.node[101].veinsmobility totalCO2Emission 894.3381755357
scalar HighwayScenario1.node[96].appl generatedWSMs 0
scalar HighwayScenario1.node[96].appl receivedWSMs 0
scalar HighwayScenario1.node[96].appl generatedBSMs 0
scalar HighwayScenario1.node[96].appl receivedBSMs 0
scalar HighwayScenario1.node[96].appl generatedWSAs 0
scalar HighwayScenario1.node[96].appl receivedWSAs 0
scalar HighwayScenario1.node[96].appl delayBSM_P1 0
scalar HighwayScenario1.node[96].appl delayBSM_P2 0
scalar HighwayScenario1.node[96].nic.phy80211p busyTime 0
scalar HighwayScenario1.node[96].nic.mac1609_4 ReceivedUnicastPackets 0
scalar HighwayScenario1.node[96].nic.mac1609_4 ReceivedBroadcasts 0
scalar HighwayScenario1.node[96].nic.mac1609_4 SentPackets 0
scalar HighwayScenario1.node[96].nic.mac1609_4 SNIRLostPackets 0
scalar HighwayScenario1.node[96].nic.mac1609_4 RXTXLostPackets 0
scalar HighwayScenario1.node[96].nic.mac1609_4 TotalLostPackets 0
scalar HighwayScenario1.node[96].nic.mac1609_4 DroppedPacketsInMac 0
scalar HighwayScenario1.node[96].nic.mac1609_4 TooLittleTime 0
scalar HighwayScenario1.node[96].nic.mac1609_4 TimesIntoBackoff 0
scalar HighwayScenario1.node[96].nic.mac1609_4 SlotsBackoff 0
scalar HighwayScenario1.node[96].nic.mac1609_4 NumInternalContention 0
scalar HighwayScenario1.node[96].nic.mac1609_4 totalBusyTime 0
scalar HighwayScenario1.node[96].veinsmobility startTime 178
scalar HighwayScenario1.node[96].veinsmobility totalTime 169
scalar HighwayScenario1.node[96].veinsmobility stopTime 348
scalar HighwayScenario1.node[96].veinsmobility minSpeed 28.456718980243
scalar HighwayScenario1.node[96].veinsmobility maxSpeed 30.222797298962
scalar HighwayScenario1.node[96].veinsmobility totalDistance 4994.7394714836
scalar HighwayScenario1.node[96].veinsmobility totalCO2Emission 857.81863254122
scalar HighwayScenario1.node[98].appl generatedWSMs 0
scalar HighwayScenario1.node[98].appl receivedWSMs 0
scalar HighwayScenario1.node[98].appl generatedBSMs 0
scalar HighwayScenario1.node[98].appl receivedBSMs 0
scalar HighwayScenario1.node[98].appl generatedWSAs 0
scalar HighwayScenario1.node[98].appl receivedWSAs 0
scalar HighwayScenario1.node[98].appl delayBSM_P1 0
scalar HighwayScenario1.node[98].appl delayBSM_P2 0
scalar HighwayScenario1.node[98].nic.phy80211p busyTime 0
scalar HighwayScenario1.node[98].nic.mac1609_4 ReceivedUnicastPackets 0
scalar HighwayScenario1.node[98].nic.mac1609_4 ReceivedBroadcasts 0
scalar HighwayScenario1.node[98].nic.mac1609_4 SentPackets 0
scalar HighwayScenario1.node[98].nic.mac1609_4 SNIRLostPackets 0
scalar HighwayScenario1.node[98].nic.mac1609_4 RXTXLostPackets 0
scalar HighwayScenario1.node[98].nic.mac1609_4 TotalLostPackets 0
scalar HighwayScenario1.node[98].nic.mac1609_4 DroppedPacketsInMac 0
scalar HighwayScenario1.node[98].nic.mac1609_4 TooLittleTime 0
scalar HighwayScenario1.node[98].nic.mac1609_4 TimesIntoBackoff 0
scalar HighwayScenario1.node[98].nic.mac1609_4 SlotsBackoff 0
scalar HighwayScenario1.node[98].nic.mac1609_4 NumInternalContention 0
scalar HighwayScenario1.node[98].nic.mac1609_4 totalBusyTime 0
scalar HighwayScenario1.node[98].veinsmobility startTime 182
scalar HighwayScenario1.node[98].veinsmobility totalTime 168
scalar HighwayScenario1.node[98].veinsmobility stopTime 351
scalar HighwayScenario1.node[98].veinsmobility minSpeed 28.937313040997
scalar HighwayScenario1.node[98].veinsmobility maxSpeed 30.167511650407
scalar HighwayScenario1.node[98].veinsmobility totalDistance 4968.3170584101
scalar HighwayScenario1.node[98].veinsmobility totalCO2Emission 839.74040436349
scalar HighwayScenario1.node[100].appl generatedWSMs 0
scalar HighwayScenario1.node[100].appl receivedWSMs 0
scalar HighwayScenario1.node[100].appl generatedBSMs 0
scalar HighwayScenario1.node[100].appl receivedBSMs 0
scalar HighwayScenario1.node[100].appl generatedWSAs 0
scalar HighwayScenario1.node[100].appl receivedWSAs 0
scalar HighwayScenario1.node[100].appl delayBSM_P1 0
scalar HighwayScenario1.node[100].appl delayBSM_P2 0
scalar HighwayScenario1.node[100].nic.phy80211p busyTime 0
scalar HighwayScenario1.node[100].nic.mac1609_4 ReceivedUnicastPackets 0
scalar HighwayScenario1.node[100].nic.mac1609_4 ReceivedBroadcasts 0
scalar HighwayScenario1.node[100].nic.mac1609_4 SentPackets 0
scalar HighwayScenario1.node[100].nic.mac1609_4 SNIRLostPackets 0
scalar HighwayScenario1.node[100].nic.mac1609_4 RXTXLostPackets 0
scalar HighwayScenario1.node[100].nic.mac1609_4 TotalLostPackets 0
scalar HighwayScenario1.node[100].nic.mac1609_4 DroppedPacketsInMac 0
scalar HighwayScenario1.node[100].nic.mac1609_4 TooLittleTime 0
scalar HighwayScenario1.node[100].nic.mac1609_4 TimesIntoBackoff 0
scalar HighwayScenario1.node[100].nic.mac1609_4 SlotsBackoff 0
scalar HighwayScenario1.node[100].nic.mac1609_4 NumInternalContention 0
scalar HighwayScenario1.node[100].nic.mac1609_4 totalBusyTime 0
scalar HighwayScenario1.node[100].veinsmobility startTime 186
scalar HighwayScenario1.node[100].veinsmobility totalTime 169
scalar HighwayScenario1.node[100].veinsmobility stopTime 356
scalar HighwayScenario1.node[100].veinsmobility minSpeed 28.790403983224
scalar HighwayScenario1.node[100].veinsmobility maxSpeed 30.035644526436
scalar HighwayScenario1.node[100].veinsmobility totalDistance 4965.6816438811
scalar HighwayScenario1.node[100].veinsmobility totalCO2Emission 868.12737228016

