version 2
run Scenario1-0-20180428-20:59:52-14600
attr configname Scenario1
attr datetime 20180428-20:59:52
attr experiment Scenario1
attr inifile omnetpp.ini
attr iterationvars ""
attr iterationvarsf ""
attr measurement ""
attr network HighwayScenario1
attr processid 14600
attr repetition 0
attr replication #0
attr resultdir results
attr runnumber 0
attr seedset 0
param *.ambulanceNode[*].applType "\"AmbulanceAppLayer\""
param *.ambulanceNode[*].appl.messageLength 58
param *.attackerNode[*].applType "\"AttackerAppLayer\""
param *.node[*].applType "\"NormalAppLayer\""
param *.node[*].appl.headerLength "80 bit"
param *.node[*].appl.sendBeacons false
param *.node[*].appl.dataOnSch false
param **.debug false
param **.coreDebug false
param *.playgroundSizeX 5500m
param *.playgroundSizeY 500m
param *.playgroundSizeZ 50m
param *.annotations.draw false
param *.obstacles.debug false
param *.manager.updateInterval 1s
param *.manager.host "\"localhost\""
param *.manager.port 9999
param *.manager.autoShutdown true
param *.manager.launchConfig "xmldoc(\"highway.launchd.xml\")"
param *.connectionManager.sendDirect true
param *.connectionManager.maxInterfDist 2600m
param *.connectionManager.drawMaxIntfDist false
param *.**.nic.mac1609_4.useServiceChannel false
param *.**.nic.mac1609_4.txPower 20mW
param *.**.nic.mac1609_4.bitrate 6Mbps
param *.**.nic.phy80211p.sensitivity -89dBm
param *.**.nic.phy80211p.useThermalNoise true
param *.**.nic.phy80211p.thermalNoise -110dBm
param *.**.nic.phy80211p.decider "xmldoc(\"config.xml\")"
param *.**.nic.phy80211p.analogueModels "xmldoc(\"config.xml\")"
param *.**.nic.phy80211p.usePropagationDelay true
param *.**.nic.phy80211p.antenna "xmldoc(\"antenna.xml\", \"/root/Antenna[@id='monopole']\")"
param *.manager.moduleType "\"ambulance=org.car2x.veins.nodes.Car attacker=org.car2x.veins.nodes.Car *=org.car2x.veins.nodes.Car\""
param *.manager.moduleName "\"ambulance=ambulanceNode attacker=attackerNode *=node\""
param *.node[*].veinsmobilityType.debug true
param *.node[*].veinsmobility.x 0
param *.node[*].veinsmobility.y 0
param *.node[*].veinsmobility.z 1.895
param *.ambulanceNode[*].veinsmobilityType.debug true
param *.ambulanceNode[*].veinsmobility.x 0
param *.ambulanceNode[*].veinsmobility.y 0
param *.ambulanceNode[*].veinsmobility.z 1.895
param *.attackerNode[*].veinsmobilityType.debug true
param *.attackerNode[*].veinsmobility.x 0
param *.attackerNode[*].veinsmobility.y 0
param *.attackerNode[*].veinsmobility.z 1.895

vector 0 HighwayScenario1.node[0].veinsmobility posx ETV
vector 1 HighwayScenario1.node[0].veinsmobility posy ETV
vector 2 HighwayScenario1.node[0].veinsmobility speed ETV
vector 3 HighwayScenario1.node[1].veinsmobility posx ETV
vector 4 HighwayScenario1.node[1].veinsmobility posy ETV
vector 5 HighwayScenario1.node[0].veinsmobility acceleration ETV
vector 6 HighwayScenario1.node[0].veinsmobility co2emission ETV
vector 7 HighwayScenario1.node[2].veinsmobility posx ETV
vector 8 HighwayScenario1.node[2].veinsmobility posy ETV
vector 9 HighwayScenario1.node[1].veinsmobility speed ETV
vector 10 HighwayScenario1.node[3].veinsmobility posx ETV
vector 11 HighwayScenario1.node[3].veinsmobility posy ETV
vector 12 HighwayScenario1.node[1].veinsmobility acceleration ETV
vector 13 HighwayScenario1.node[1].veinsmobility co2emission ETV
vector 14 HighwayScenario1.node[2].veinsmobility speed ETV
vector 15 HighwayScenario1.node[2].veinsmobility acceleration ETV
vector 16 HighwayScenario1.node[2].veinsmobility co2emission ETV
vector 17 HighwayScenario1.node[3].veinsmobility speed ETV
vector 18 HighwayScenario1.node[4].veinsmobility posx ETV
vector 19 HighwayScenario1.node[4].veinsmobility posy ETV
vector 20 HighwayScenario1.node[3].veinsmobility acceleration ETV
vector 21 HighwayScenario1.node[3].veinsmobility co2emission ETV
vector 22 HighwayScenario1.node[4].veinsmobility speed ETV
vector 23 HighwayScenario1.node[5].veinsmobility posx ETV
vector 24 HighwayScenario1.node[5].veinsmobility posy ETV
vector 25 HighwayScenario1.node[4].veinsmobility acceleration ETV
vector 26 HighwayScenario1.node[4].veinsmobility co2emission ETV
vector 27 HighwayScenario1.node[6].veinsmobility posx ETV
vector 28 HighwayScenario1.node[6].veinsmobility posy ETV
vector 29 HighwayScenario1.node[5].veinsmobility speed ETV
vector 30 HighwayScenario1.node[5].veinsmobility acceleration ETV
vector 31 HighwayScenario1.node[5].veinsmobility co2emission ETV
vector 32 HighwayScenario1.node[6].veinsmobility speed ETV
vector 33 HighwayScenario1.node[7].veinsmobility posx ETV
vector 34 HighwayScenario1.node[7].veinsmobility posy ETV
vector 35 HighwayScenario1.node[6].veinsmobility acceleration ETV
vector 36 HighwayScenario1.node[6].veinsmobility co2emission ETV
vector 37 HighwayScenario1.ambulanceNode[8].veinsmobility posx ETV
vector 38 HighwayScenario1.ambulanceNode[8].veinsmobility posy ETV
vector 39 HighwayScenario1.node[7].veinsmobility speed ETV
vector 40 HighwayScenario1.node[9].veinsmobility posx ETV
vector 41 HighwayScenario1.node[9].veinsmobility posy ETV
vector 42 HighwayScenario1.node[7].veinsmobility acceleration ETV
vector 43 HighwayScenario1.node[7].veinsmobility co2emission ETV
vector 44 HighwayScenario1.ambulanceNode[8].veinsmobility speed ETV
vector 45 HighwayScenario1.node[10].veinsmobility posx ETV
vector 46 HighwayScenario1.node[10].veinsmobility posy ETV
vector 47 HighwayScenario1.ambulanceNode[8].veinsmobility acceleration ETV
vector 48 HighwayScenario1.ambulanceNode[8].veinsmobility co2emission ETV
vector 49 HighwayScenario1.node[9].veinsmobility speed ETV
vector 50 HighwayScenario1.attackerNode[11].veinsmobility posx ETV
vector 51 HighwayScenario1.attackerNode[11].veinsmobility posy ETV
vector 52 HighwayScenario1.node[9].veinsmobility acceleration ETV
vector 53 HighwayScenario1.node[9].veinsmobility co2emission ETV
vector 54 HighwayScenario1.node[10].veinsmobility speed ETV
vector 55 HighwayScenario1.node[12].veinsmobility posx ETV
vector 56 HighwayScenario1.node[12].veinsmobility posy ETV
vector 57 HighwayScenario1.node[10].veinsmobility acceleration ETV
vector 58 HighwayScenario1.node[10].veinsmobility co2emission ETV
vector 59 HighwayScenario1.attackerNode[11].veinsmobility speed ETV
vector 60 HighwayScenario1.node[13].veinsmobility posx ETV
vector 61 HighwayScenario1.node[13].veinsmobility posy ETV
vector 62 HighwayScenario1.attackerNode[11].veinsmobility acceleration ETV
vector 63 HighwayScenario1.attackerNode[11].veinsmobility co2emission ETV
vector 64 HighwayScenario1.node[12].veinsmobility speed ETV
vector 65 HighwayScenario1.node[12].veinsmobility acceleration ETV
vector 66 HighwayScenario1.node[12].veinsmobility co2emission ETV
vector 67 HighwayScenario1.node[13].veinsmobility speed ETV
vector 68 HighwayScenario1.node[13].veinsmobility acceleration ETV
vector 69 HighwayScenario1.node[13].veinsmobility co2emission ETV
vector 70 HighwayScenario1.node[14].veinsmobility posx ETV
vector 71 HighwayScenario1.node[14].veinsmobility posy ETV
vector 72 HighwayScenario1.node[14].veinsmobility speed ETV
vector 73 HighwayScenario1.node[14].veinsmobility acceleration ETV
vector 74 HighwayScenario1.node[14].veinsmobility co2emission ETV
vector 75 HighwayScenario1.node[15].veinsmobility posx ETV
vector 76 HighwayScenario1.node[15].veinsmobility posy ETV
vector 77 HighwayScenario1.node[16].veinsmobility posx ETV
vector 78 HighwayScenario1.node[16].veinsmobility posy ETV
vector 79 HighwayScenario1.node[15].veinsmobility speed ETV
vector 80 HighwayScenario1.node[17].veinsmobility posx ETV
vector 81 HighwayScenario1.node[17].veinsmobility posy ETV
vector 82 HighwayScenario1.node[15].veinsmobility acceleration ETV
vector 83 HighwayScenario1.node[15].veinsmobility co2emission ETV
vector 84 HighwayScenario1.node[16].veinsmobility speed ETV
vector 85 HighwayScenario1.node[18].veinsmobility posx ETV
vector 86 HighwayScenario1.node[18].veinsmobility posy ETV
vector 87 HighwayScenario1.node[16].veinsmobility acceleration ETV
vector 88 HighwayScenario1.node[16].veinsmobility co2emission ETV
vector 89 HighwayScenario1.node[17].veinsmobility speed ETV
vector 90 HighwayScenario1.node[19].veinsmobility posx ETV
vector 91 HighwayScenario1.node[19].veinsmobility posy ETV
vector 92 HighwayScenario1.node[17].veinsmobility acceleration ETV
vector 93 HighwayScenario1.node[17].veinsmobility co2emission ETV
vector 94 HighwayScenario1.node[18].veinsmobility speed ETV
vector 95 HighwayScenario1.node[20].veinsmobility posx ETV
vector 96 HighwayScenario1.node[20].veinsmobility posy ETV
vector 97 HighwayScenario1.node[18].veinsmobility acceleration ETV
vector 98 HighwayScenario1.node[18].veinsmobility co2emission ETV
vector 99 HighwayScenario1.node[19].veinsmobility speed ETV
vector 100 HighwayScenario1.node[21].veinsmobility posx ETV
vector 101 HighwayScenario1.node[21].veinsmobility posy ETV
vector 102 HighwayScenario1.node[19].veinsmobility acceleration ETV
vector 103 HighwayScenario1.node[19].veinsmobility co2emission ETV
vector 104 HighwayScenario1.node[20].veinsmobility speed ETV
vector 105 HighwayScenario1.node[22].veinsmobility posx ETV
vector 106 HighwayScenario1.node[22].veinsmobility posy ETV
vector 107 HighwayScenario1.node[20].veinsmobility acceleration ETV
vector 108 HighwayScenario1.node[20].veinsmobility co2emission ETV
vector 109 HighwayScenario1.node[21].veinsmobility speed ETV
vector 110 HighwayScenario1.node[23].veinsmobility posx ETV
vector 111 HighwayScenario1.node[23].veinsmobility posy ETV
vector 112 HighwayScenario1.node[21].veinsmobility acceleration ETV
vector 113 HighwayScenario1.node[21].veinsmobility co2emission ETV
vector 114 HighwayScenario1.node[22].veinsmobility speed ETV
vector 115 HighwayScenario1.node[22].veinsmobility acceleration ETV
vector 116 HighwayScenario1.node[22].veinsmobility co2emission ETV
vector 117 HighwayScenario1.node[23].veinsmobility speed ETV
vector 118 HighwayScenario1.node[24].veinsmobility posx ETV
vector 119 HighwayScenario1.node[24].veinsmobility posy ETV
vector 120 HighwayScenario1.node[23].veinsmobility acceleration ETV
vector 121 HighwayScenario1.node[23].veinsmobility co2emission ETV
vector 122 HighwayScenario1.node[25].veinsmobility posx ETV
vector 123 HighwayScenario1.node[25].veinsmobility posy ETV
vector 124 HighwayScenario1.node[24].veinsmobility speed ETV
vector 125 HighwayScenario1.node[24].veinsmobility acceleration ETV
vector 126 HighwayScenario1.node[24].veinsmobility co2emission ETV
vector 127 HighwayScenario1.node[25].veinsmobility speed ETV
vector 128 HighwayScenario1.node[25].veinsmobility acceleration ETV
vector 129 HighwayScenario1.node[25].veinsmobility co2emission ETV
vector 130 HighwayScenario1.node[26].veinsmobility posx ETV
vector 131 HighwayScenario1.node[26].veinsmobility posy ETV
vector 132 HighwayScenario1.node[27].veinsmobility posx ETV
vector 133 HighwayScenario1.node[27].veinsmobility posy ETV
vector 134 HighwayScenario1.node[26].veinsmobility speed ETV
vector 135 HighwayScenario1.node[28].veinsmobility posx ETV
vector 136 HighwayScenario1.node[28].veinsmobility posy ETV
vector 137 HighwayScenario1.node[26].veinsmobility acceleration ETV
vector 138 HighwayScenario1.node[26].veinsmobility co2emission ETV
vector 139 HighwayScenario1.node[27].veinsmobility speed ETV
vector 140 HighwayScenario1.node[29].veinsmobility posx ETV
vector 141 HighwayScenario1.node[29].veinsmobility posy ETV
vector 142 HighwayScenario1.node[27].veinsmobility acceleration ETV
vector 143 HighwayScenario1.node[27].veinsmobility co2emission ETV
vector 144 HighwayScenario1.node[28].veinsmobility speed ETV
vector 145 HighwayScenario1.node[28].veinsmobility acceleration ETV
vector 146 HighwayScenario1.node[28].veinsmobility co2emission ETV
vector 147 HighwayScenario1.node[29].veinsmobility speed ETV
vector 148 HighwayScenario1.node[30].veinsmobility posx ETV
vector 149 HighwayScenario1.node[30].veinsmobility posy ETV
vector 150 HighwayScenario1.node[29].veinsmobility acceleration ETV
vector 151 HighwayScenario1.node[29].veinsmobility co2emission ETV
vector 152 HighwayScenario1.node[30].veinsmobility speed ETV
vector 153 HighwayScenario1.node[30].veinsmobility acceleration ETV
vector 154 HighwayScenario1.node[30].veinsmobility co2emission ETV
vector 155 HighwayScenario1.node[31].veinsmobility posx ETV
vector 156 HighwayScenario1.node[31].veinsmobility posy ETV
vector 157 HighwayScenario1.node[32].veinsmobility posx ETV
vector 158 HighwayScenario1.node[32].veinsmobility posy ETV
vector 159 HighwayScenario1.node[31].veinsmobility speed ETV
vector 160 HighwayScenario1.node[33].veinsmobility posx ETV
vector 161 HighwayScenario1.node[33].veinsmobility posy ETV
vector 162 HighwayScenario1.node[31].veinsmobility acceleration ETV
vector 163 HighwayScenario1.node[31].veinsmobility co2emission ETV
vector 164 HighwayScenario1.node[32].veinsmobility speed ETV
vector 165 HighwayScenario1.node[34].veinsmobility posx ETV
vector 166 HighwayScenario1.node[34].veinsmobility posy ETV
vector 167 HighwayScenario1.node[32].veinsmobility acceleration ETV
vector 168 HighwayScenario1.node[32].veinsmobility co2emission ETV
vector 169 HighwayScenario1.node[33].veinsmobility speed ETV
vector 170 HighwayScenario1.node[35].veinsmobility posx ETV
vector 171 HighwayScenario1.node[35].veinsmobility posy ETV
vector 172 HighwayScenario1.node[33].veinsmobility acceleration ETV
vector 173 HighwayScenario1.node[33].veinsmobility co2emission ETV
vector 174 HighwayScenario1.node[34].veinsmobility speed ETV
vector 175 HighwayScenario1.node[34].veinsmobility acceleration ETV
vector 176 HighwayScenario1.node[34].veinsmobility co2emission ETV
vector 177 HighwayScenario1.node[35].veinsmobility speed ETV
vector 178 HighwayScenario1.node[35].veinsmobility acceleration ETV
vector 179 HighwayScenario1.node[35].veinsmobility co2emission ETV
vector 180 HighwayScenario1.node[36].veinsmobility posx ETV
vector 181 HighwayScenario1.node[36].veinsmobility posy ETV
vector 182 HighwayScenario1.node[37].veinsmobility posx ETV
vector 183 HighwayScenario1.node[37].veinsmobility posy ETV
vector 184 HighwayScenario1.node[36].veinsmobility speed ETV
vector 185 HighwayScenario1.node[36].veinsmobility acceleration ETV
vector 186 HighwayScenario1.node[36].veinsmobility co2emission ETV
vector 187 HighwayScenario1.node[37].veinsmobility speed ETV
vector 188 HighwayScenario1.node[38].veinsmobility posx ETV
vector 189 HighwayScenario1.node[38].veinsmobility posy ETV
vector 190 HighwayScenario1.node[37].veinsmobility acceleration ETV
vector 191 HighwayScenario1.node[37].veinsmobility co2emission ETV
vector 192 HighwayScenario1.node[39].veinsmobility posx ETV
vector 193 HighwayScenario1.node[39].veinsmobility posy ETV
vector 194 HighwayScenario1.node[38].veinsmobility speed ETV
vector 195 HighwayScenario1.node[40].veinsmobility posx ETV
vector 196 HighwayScenario1.node[40].veinsmobility posy ETV
vector 197 HighwayScenario1.node[38].veinsmobility acceleration ETV
vector 198 HighwayScenario1.node[38].veinsmobility co2emission ETV
vector 199 HighwayScenario1.node[39].veinsmobility speed ETV
vector 200 HighwayScenario1.node[39].veinsmobility acceleration ETV
vector 201 HighwayScenario1.node[39].veinsmobility co2emission ETV
vector 202 HighwayScenario1.node[40].veinsmobility speed ETV
vector 203 HighwayScenario1.node[41].veinsmobility posx ETV
vector 204 HighwayScenario1.node[41].veinsmobility posy ETV
vector 205 HighwayScenario1.node[40].veinsmobility acceleration ETV
vector 206 HighwayScenario1.node[40].veinsmobility co2emission ETV
vector 207 HighwayScenario1.node[42].veinsmobility posx ETV
vector 208 HighwayScenario1.node[42].veinsmobility posy ETV
vector 209 HighwayScenario1.node[41].veinsmobility speed ETV
vector 210 HighwayScenario1.node[43].veinsmobility posx ETV
vector 211 HighwayScenario1.node[43].veinsmobility posy ETV
vector 212 HighwayScenario1.node[41].veinsmobility acceleration ETV
vector 213 HighwayScenario1.node[41].veinsmobility co2emission ETV
vector 214 HighwayScenario1.node[42].veinsmobility speed ETV
vector 215 HighwayScenario1.node[42].veinsmobility acceleration ETV
vector 216 HighwayScenario1.node[42].veinsmobility co2emission ETV
vector 217 HighwayScenario1.node[43].veinsmobility speed ETV
vector 218 HighwayScenario1.node[44].veinsmobility posx ETV
vector 219 HighwayScenario1.node[44].veinsmobility posy ETV
vector 220 HighwayScenario1.node[43].veinsmobility acceleration ETV
vector 221 HighwayScenario1.node[43].veinsmobility co2emission ETV
vector 222 HighwayScenario1.node[44].veinsmobility speed ETV
vector 223 HighwayScenario1.node[44].veinsmobility acceleration ETV
vector 224 HighwayScenario1.node[44].veinsmobility co2emission ETV
vector 225 HighwayScenario1.node[45].veinsmobility posx ETV
vector 226 HighwayScenario1.node[45].veinsmobility posy ETV
vector 227 HighwayScenario1.node[45].veinsmobility speed ETV
vector 228 HighwayScenario1.node[45].veinsmobility acceleration ETV
vector 229 HighwayScenario1.node[45].veinsmobility co2emission ETV
vector 230 HighwayScenario1.node[46].veinsmobility posx ETV
vector 231 HighwayScenario1.node[46].veinsmobility posy ETV
vector 232 HighwayScenario1.node[47].veinsmobility posx ETV
vector 233 HighwayScenario1.node[47].veinsmobility posy ETV
vector 234 HighwayScenario1.node[46].veinsmobility speed ETV
vector 235 HighwayScenario1.node[48].veinsmobility posx ETV
vector 236 HighwayScenario1.node[48].veinsmobility posy ETV
vector 237 HighwayScenario1.node[46].veinsmobility acceleration ETV
vector 238 HighwayScenario1.node[46].veinsmobility co2emission ETV
vector 239 HighwayScenario1.node[47].veinsmobility speed ETV
vector 240 HighwayScenario1.node[49].veinsmobility posx ETV
vector 241 HighwayScenario1.node[49].veinsmobility posy ETV
vector 242 HighwayScenario1.node[47].veinsmobility acceleration ETV
vector 243 HighwayScenario1.node[47].veinsmobility co2emission ETV
vector 244 HighwayScenario1.node[48].veinsmobility speed ETV
0	10	9	30.1
0	11	10	30.1
0	12	11	63.417017082407
0	13	12	97.033011650032
0	14	13	130.01476710074
0	15	14	163.7704184355
0	16	15	197.20577148649
0	17	16	230.25714472836
0	18	17	264.32834343236
0	19	18	298.24937666348
0	20	19	331.76899916289
0	21	20	365.68627925892
0	22	21	399.19075043341
0	76	22	433.26373488879
0	136	23	466.50793121938
0	202	24	499.39214158654
0	341	25	533.03397482268
0	488	26	565.88632206858
0	647	27	599.58629159052
0	806	28	632.46783204474
0	965	29	666.41405804191
0	1120	30	699.42915153983
0	1279	31	733.36087591523
0	1450	32	767.27429541405
0	1617	33	800.65545224008
0	1784	34	834.2371487657
0	1943	35	868.04545418969
0	2098	36	901.20546359752
0	2245	37	934.90068874574
0	2400	38	968.87187684044
0	2559	39	1002.8135735653
0	2726	40	1035.8270673607
0	2897	41	1069.6991762287
0	3080	42	1102.9217753346
0	3263	43	1135.8377815518
0	3438	44	1169.9034048437
0	3605	45	1202.8978947916
0	3768	46	1236.0084422177
0	3927	47	1269.025094419
0	4086	48	1302.1878233249
0	4253	49	1335.0538832354
0	4416	50	1368.0574949759
0	4583	51	1401.7816644016
0	4754	52	1435.7125265632
0	4925	53	1469.6883112482
0	5104	54	1502.8114137051
0	5287	55	1536.3896760605
0	5466	56	1569.3835959946
0	5649	57	1602.287915971
0	5828	58	1636.2346734885
0	6007	59	1669.5188552237
0	6190	60	1703.2243853107
0	6377	61	1737.0300732753
0	6564	62	1770.960526228
0	6751	63	1804.8921828866
0	6942	64	1838.6473934602
0	7133	65	1871.965884635
0	7324	66	1906.0517168526
0	7515	67	1933.5712325059
0	7710	68	1953.0907481592
0	7905	69	1964.6102638125
0	8096	70	1968.1297794658
0	8291	71	1968.549813139
0	8490	72	1968.5862537068
0	8689	73	1968.5862537068
0	8884	74	1968.5862537068
0	9083	75	1968.5862537068
0	9286	76	1970.6157672649
0	9489	77	1974.6257704952
0	9688	78	1980.2339860901
0	9891	79	1988.0292039151
0	10094	80	1993.9801911165
0	10297	81	1993.9807121287
0	10502	82	1993.9807121287
0	10705	83	1993.9807121287
0	10888	84	1993.9807121287
0	11047	85	1995.2394604872
0	11194	86	1996.7432750342
0	11337	87	1997.300726948
1	10	9	29.95
1	11	10	29.95
1	12	11	29.95
1	13	12	29.95
1	14	13	29.95
1	15	14	29.95
1	16	15	29.95
1	17	16	29.95
1	18	17	29.95
1	19	18	29.95
1	20	19	29.95
1	21	20	29.95
1	22	21	29.95
1	76	22	29.95
1	136	23	29.95
1	202	24	29.95
1	341	25	29.95
1	488	26	29.95
1	647	27	29.95
1	806	28	29.95
1	965	29	29.95
1	1120	30	29.95
1	1279	31	29.95
1	1450	32	29.95
1	1617	33	29.95
1	1784	34	29.95
1	1943	35	29.95
1	2098	36	29.95
1	2245	37	29.95
1	2400	38	29.95
1	2559	39	29.95
1	2726	40	29.95
1	2897	41	29.95
1	3080	42	29.95
1	3263	43	29.95
1	3438	44	29.95
1	3605	45	29.95
1	3768	46	29.95
1	3927	47	29.95
1	4086	48	29.95
1	4253	49	29.95
1	4416	50	29.95
1	4583	51	29.95
1	4754	52	29.95
1	4925	53	29.95
1	5104	54	29.95
1	5287	55	29.95
1	5466	56	29.95
1	5649	57	29.95
1	5828	58	29.95
1	6007	59	29.95
1	6190	60	29.95
1	6377	61	29.95
1	6564	62	29.95
1	6751	63	29.95
1	6942	64	29.95
1	7133	65	29.95
1	7324	66	29.95
1	7515	67	29.95
1	7710	68	29.95
1	7905	69	29.95
1	8096	70	29.95
1	8291	71	29.95
1	8490	72	29.95
1	8689	73	29.95
1	8884	74	29.95
1	9083	75	29.95
1	9286	76	29.95
1	9489	77	29.95
1	9688	78	29.95
1	9891	79	29.95
1	10094	80	29.95
1	10297	81	29.95
1	10502	82	29.95
1	10705	83	29.95
1	10888	84	29.95
1	11047	85	29.95
1	11194	86	29.95
1	11337	87	29.95
2	11	10	33.317017082407
2	12	11	33.615994567625
2	13	12	32.981755450709
2	14	13	33.755651334758
2	15	14	33.435353050989
2	16	15	33.051373241868
2	17	16	34.071198704004
2	18	17	33.921033231125
2	19	18	33.519622499406
2	20	19	33.917280096028
2	21	20	33.504471174491
2	22	21	34.072984455378
2	76	22	33.244196330596
2	136	23	32.884210367155
2	202	24	33.641833236141
2	341	25	32.852347245897
2	488	26	33.699969521948
2	647	27	32.881540454217
2	806	28	33.946225997168
2	965	29	33.015093497923
2	1120	30	33.931724375396
2	1279	31	33.913419498821
2	1450	32	33.381156826034
2	1617	33	33.581696525615
2	1784	34	33.808305423989
2	1943	35	33.160009407837
2	2098	36	33.69522514822
2	2245	37	33.971188094691
2	2400	38	33.941696724904
2	2559	39	33.013493795405
2	2726	40	33.872108867907
2	2897	41	33.222599105901
2	3080	42	32.916006217236
2	3263	43	34.065623291934
2	3438	44	32.994489947849
2	3605	45	33.110547426148
2	3768	46	33.016652201294
2	3927	47	33.162728905844
2	4086	48	32.866059910556
2	4253	49	33.003611740531
2	4416	50	33.724169425658
2	4583	51	33.930862161613
2	4754	52	33.975784684988
2	4925	53	33.123102456846
2	5104	54	33.578262355403
2	5287	55	32.993919934196
2	5466	56	32.904319976331
2	5649	57	33.946757517514
2	5828	58	33.284181735179
2	6007	59	33.705530086989
2	6190	60	33.805687964594
2	6377	61	33.930452952735
2	6564	62	33.931656658641
2	6751	63	33.755210573544
2	6942	64	33.318491174831
2	7133	65	34.085832217641
2	7324	66	27.519515653291
2	7515	67	19.519515653291
2	7710	68	11.519515653291
2	7905	69	3.519515653291
2	8096	70	0.42003367318604
2	8291	71	0.036440567808042
2	8490	72	0
2	8689	73	0
2	8884	74	0
2	9083	75	2.0295135580818
2	9286	76	4.0100032303599
2	9489	77	5.6082155948388
2	9688	78	7.7952178250416
2	9891	79	5.9509872013905
2	10094	80	0.00052101215370626
2	10297	81	0
2	10502	82	0
2	10705	83	0
2	10888	84	1.258748358523
2	11047	85	1.5038145469903
2	11194	86	0.55745191377268
2	11337	87	0.089622657709538
3	12	11	30.1
3	13	12	30.1
3	14	13	63.766398097449
3	15	14	96.600135996396
3	16	15	129.64879605863
3	17	16	163.19613142119
3	18	17	197.125536154
3	19	18	230.19115656191
3	20	19	263.23052471113
3	21	20	296.36805025066
3	22	21	330.07567209041
3	76	22	363.70881218928
3	136	23	397.18469105635
3	202	24	430.38954902127
3	341	25	464.02155634084
3	488	26	497.24348729228
3	647	27	531.10907495942
3	806	28	563.92681698191
3	965	29	597.5158277497
3	1120	30	631.22240723984
3	1279	31	664.45175592064
3	1450	32	697.64280160053
3	1617	33	730.88246660435
3	1784	34	764.42515078481
3	1943	35	797.65847939318
3	2098	36	831.16083487396
3	2245	37	864.65987818487
3	2400	38	898.57373318287
3	2559	39	931.63823576416
3	2726	40	965.21968199356
3	2897	41	999.23484610493
3	3080	42	1032.9757964403
3	3263	43	1066.3021458795
3	3438	44	1099.2721952547
3	3605	45	1132.9104901777
3	3768	46	1165.7645932885
3	3927	47	1198.8690603039
3	4086	48	1231.9715471273
3	4253	49	1265.657700851
3	4416	50	1299.0733419195
3	4583	51	1332.8743483812
3	4754	52	1366.5060268488
3	4925	53	1400.2064333233
3	5104	54	1433.1856555314
3	5287	55	1466.0246802055
3	5466	56	1499.9592818786
3	5649	57	1532.9254449283
3	5828	58	1566.5195502203
3	6007	59	1600.4727739791
3	6190	60	1633.5320472851
3	6377	61	1667.0090093554
3	6564	62	1700.5735045896
3	6751	63	1726.1617630974
3	6942	64	1744.838051069
3	7133	65	1755.5143390406
3	7324	66	1759.5497076318
3	7515	67	1759.8039285855
3	7710	68	1759.8930502983
3	7905	69	1759.8930502983
3	8096	70	1759.8930502983
3	8291	71	1759.8930502983
3	8490	72	1761.3154720524
3	8689	73	1764.3456852189
3	8884	74	1768.7642892392
3	9083	75	1775.4802429252
3	9286	76	1783.9536843307
3	9489	77	1784.7735556172
3	9688	78	1785.019748665
3	9891	79	1785.0574256032
3	10094	80	1785.0574256032
3	10297	81	1785.0574256032
3	10502	82	1785.0574256032
3	10705	83	1786.949412539
3	10888	84	1788.6910285593
3	11047	85	1789.4522682836
3	11194	86	1789.5437600971
3	11337	87	1789.5770263091
4	12	11	26.65
4	13	12	26.65
4	14	13	26.65
4	15	14	26.65
4	16	15	26.65
4	17	16	26.65
4	18	17	26.65
4	19	18	26.65
4	20	19	26.65
4	21	20	29.95
4	22	21	29.95
4	76	22	29.95
4	136	23	29.95
4	202	24	29.95
4	341	25	29.95
4	488	26	29.95
4	647	27	29.95
4	806	28	29.95
4	965	29	29.95
4	1120	30	29.95
4	1279	31	29.95
4	1450	32	29.95
4	1617	33	29.95
4	1784	34	29.95
4	1943	35	29.95
4	2098	36	29.95
4	2245	37	29.95
4	2400	38	29.95
4	2559	39	29.95
4	2726	40	29.95
4	2897	41	29.95
4	3080	42	29.95
4	3263	43	29.95
4	3438	44	29.95
4	3605	45	29.95
4	3768	46	29.95
4	3927	47	29.95
4	4086	48	29.95
4	4253	49	29.95
4	4416	50	29.95
4	4583	51	29.95
4	4754	52	29.95
4	4925	53	29.95
4	5104	54	29.95
4	5287	55	29.95
4	5466	56	29.95
4	5649	57	29.95
4	5828	58	29.95
4	6007	59	29.95
4	6190	60	29.95
4	6377	61	29.95
4	6564	62	29.95
4	6751	63	29.95
4	6942	64	29.95
4	7133	65	29.95
4	7324	66	29.95
4	7515	67	29.95
4	7710	68	29.95
4	7905	69	29.95
4	8096	70	29.95
4	8291	71	29.95
4	8490	72	29.95
4	8689	73	29.95
4	8884	74	29.95
4	9083	75	29.95
4	9286	76	29.95
4	9489	77	29.95
4	9688	78	29.95
4	9891	79	29.95
4	10094	80	29.95
4	10297	81	29.95
4	10502	82	29.95
4	10705	83	29.95
4	10888	84	29.95
4	11047	85	29.95
4	11194	86	29.95
4	11337	87	29.95
5	12	11	0.29897748521762
5	13	12	-0.63423911691643
5	14	13	0.77389588404913
5	15	14	-0.32029828376835
5	16	15	-0.38397980912123
5	17	16	1.0198254621355
5	18	17	-0.15016547287814
5	19	18	-0.40141073171981
5	20	19	0.39765759662259
5	21	20	-0.41280892153736
5	22	21	0.56851328088669
5	76	22	-0.82878812478157
5	136	23	-0.35998596344143
5	202	24	0.7576228689868
5	341	25	-0.78948599024443
5	488	26	0.84762227605097
5	647	27	-0.8184290677309
5	806	28	1.0646855429513
5	965	29	-0.931132499245
5	1120	30	0.91663087747293
5	1279	31	-0.018304876575712
5	1450	32	-0.5322626727866
5	1617	33	0.20053969958099
5	1784	34	0.22660889837425
5	1943	35	-0.64829601615202
5	2098	36	0.53521574038314
5	2245	37	0.27596294647083
5	2400	38	-0.029491369787138
5	2559	39	-0.92820292949909
5	2726	40	0.85861507250229
5	2897	41	-0.64950976200635
5	3080	42	-0.30659288866445
5	3263	43	1.1496170746977
5	3438	44	-1.071133344085
5	3605	45	0.1160574782989
5	3768	46	-0.09389522485435
5	3927	47	0.14607670455007
5	4086	48	-0.2966689952882
5	4253	49	0.13755182997556
5	4416	50	0.72055768512655
5	4583	51	0.20669273595558
5	4754	52	0.044922523375135
5	4925	53	-0.85268222814193
5	5104	54	0.4551598985563
5	5287	55	-0.58434242120711
5	5466	56	-0.089599957864266
5	5649	57	1.0424375411822
5	5828	58	-0.6625757823349
5	6007	59	0.42134835181059
5	6190	60	0.10015787760494
5	6377	61	0.12476498814067
5	6564	62	0.0012037059059367
5	6751	63	-0.17644608509727
5	6942	64	-0.43671939871274
5	7133	65	0.76734104281059
5	7324	66	-6.5663165643504
5	7515	67	-8
5	7710	68	-8
5	7905	69	-8
5	8096	70	-3.0994819801049
5	8291	71	-0.383593105378
5	8490	72	-0.036440567808042
5	8689	73	0
5	8884	74	0
5	9083	75	2.0295135580818
5	9286	76	1.9804896722781
5	9489	77	1.598212364479
5	9688	78	2.1870022302028
5	9891	79	-1.8442306236511
5	10094	80	-5.9504661892368
5	10297	81	-0.00052101215370626
5	10502	82	0
5	10705	83	0
5	10888	84	1.258748358523
5	11047	85	0.24506618846731
5	11194	86	-0.94636263321764
5	11337	87	-0.46782925606314
6	12	11	8.6630080580735
6	13	12	0.97404151152412
6	14	13	12.587241063279
6	15	14	3.5949345942081
6	16	15	2.9812012848545
6	17	16	14.78126075708
6	18	17	5.1243721871564
6	19	18	2.9634239005847
6	20	19	9.6010713872707
6	21	20	2.8674074686645
6	22	21	11.076370072145
6	76	22	-0.53236178521763
6	136	23	3.1284082211643
6	202	24	12.392765342972
6	341	25	-0.28043450170242
6	488	26	13.155398607141
6	647	27	-0.5051990482717
6	806	28	15.071460609001
6	965	29	-1.3816585421428
6	1120	30	13.851687094887
6	1279	31	6.1995674278034
6	1450	32	1.8745163677614
6	1617	33	7.8514763297027
6	1784	34	8.1570689181431
6	1943	35	0.89708634215333
6	2098	36	10.615794872517
6	2245	37	8.629731152125
6	2400	38	6.1183224455225
6	2559	39	-1.3585515501191
6	2726	40	13.34305935381
6	2897	41	0.89971799701548
6	3080	42	3.5602759054961
6	3263	43	15.843393251592
6	3438	44	0.973
6	3605	45	6.9866450404199
6	3768	46	5.2804457717755
6	3927	47	7.2464211261018
6	4086	48	3.6251868539771
6	4253	49	7.1170736229865
6	4416	50	12.136411041995
6	4583	51	8.0457759328434
6	4754	52	6.7399320108659
6	4925	53	-0.74170929261413
6	5104	54	9.9105501276204
6	5287	55	1.3731928301088
6	5466	56	5.2778090562256
6	5649	57	14.889777726894
6	5828	58	0.80711244823394
6	6007	59	9.6959161218376
6	6190	60	7.1257525791465
6	6377	61	7.3756624568211
6	6564	62	6.3657147856602
6	6751	63	4.8559610307816
6	6942	64	2.6274053339673
6	7133	65	12.716192973506
6	7324	66	0.973
6	7515	67	0.973
6	7710	68	0.973
6	7905	69	0.973
6	8096	70	0.973
6	8291	71	0.973
6	8490	72	0.973
6	8689	73	0.973
6	8884	74	0.973
6	9083	75	2.2013369604773
6	9286	76	3.2233658373883
6	9489	77	3.5569468372906
6	9688	78	5.638405570504
6	9891	79	0.973
6	10094	80	0.973
6	10297	81	0.973
6	10502	82	0.973
6	10705	83	0.973
6	10888	84	1.5527580938069
6	11047	85	1.2716748950153
6	11194	86	0.973
6	11337	87	0.973
7	13	12	30.1
7	14	13	30.1
7	15	14	63.419453552218
7	16	15	94.673112062209
7	17	16	128.33797549881
7	18	17	160.64727497334
7	19	18	193.35851524564
7	20	19	226.5066738489
7	21	20	258.78273854072
7	22	21	291.07670588366
7	76	22	323.57035222075
7	136	23	356.55497141597
7	202	24	389.14499339745
7	341	25	421.74484492421
7	488	26	454.81628746282
7	647	27	487.40614033771
7	806	28	520.10715395589
7	965	29	553.25490492996
7	1120	30	586.41744918263
7	1279	31	619.32079563919
7	1450	32	652.40752808759
7	1617	33	685.92743150314
7	1784	34	718.88188811051
7	1943	35	752.18705694919
7	2098	36	784.88774716414
7	2245	37	818.40992426464
7	2400	38	851.05932645228
7	2559	39	883.79807162202
7	2726	40	916.37742518577
7	2897	41	949.96244739868
7	3080	42	982.52070735798
7	3263	43	1015.3950243161
7	3438	44	1049.1097177315
7	3605	45	1081.7779419638
7	3768	46	1115.2898951314
7	3927	47	1148.9417357634
7	4086	48	1182.624746019
7	4253	49	1215.5441329912
7	4416	50	1248.97661309
7	4583	51	1282.273953117
7	4754	52	1316.0059245991
7	4925	53	1349.4845055742
7	5104	54	1382.3115015807
7	5287	55	1415.8926170985
7	5466	56	1449.1181176068
7	5649	57	1482.2196089362
7	5828	58	1515.4635160403
7	6007	59	1542.001769901
7	6190	60	1560.5400237617
7	6377	61	1572.0041056098
7	6564	62	1575.8716801379
7	6751	63	1576.1739019445
7	6942	64	1576.2591714487
7	7133	65	1576.3109530291
7	7324	66	1576.3109530291
7	7515	67	1576.3109530291
7	7710	68	1576.3109530291
7	7905	69	1578.5804997825
7	8096	70	1582.80928859
7	8291	71	1589.4355052155
7	8490	72	1598.5505577603
7	8689	73	1600.9822481621
7	8884	74	1601.4560293135
7	9083	75	1601.4811214091
7	9286	76	1601.4811214091
7	9489	77	1601.4811214091
7	9688	78	1601.4811214091
7	9891	79	1603.3768794836
7	10094	80	1605.1855090952
7	10297	81	1605.4585833271
7	10502	82	1605.5799883501
7	10705	83	1605.6588246777
7	10888	84	1605.6588246777
7	11047	85	1605.6588246777
7	11194	86	1605.6588246777
7	11337	87	1607.3721037927
8	13	12	29.95
8	14	13	29.95
8	15	14	29.95
8	16	15	29.95
8	17	16	29.95
8	18	17	29.95
8	19	18	29.95
8	20	19	29.95
8	21	20	29.95
8	22	21	29.95
8	76	22	29.95
8	136	23	29.95
8	202	24	29.95
8	341	25	29.95
8	488	26	29.95
8	647	27	29.95
8	806	28	29.95
8	965	29	29.95
8	1120	30	29.95
8	1279	31	29.95
8	1450	32	29.95
8	1617	33	29.95
8	1784	34	29.95
8	1943	35	29.95
8	2098	36	29.95
8	2245	37	29.95
8	2400	38	29.95
8	2559	39	29.95
8	2726	40	29.95
8	2897	41	29.95
8	3080	42	29.95
8	3263	43	29.95
8	3438	44	29.95
8	3605	45	29.95
8	3768	46	29.95
8	3927	47	29.95
8	4086	48	29.95
8	4253	49	29.95
8	4416	50	29.95
8	4583	51	29.95
8	4754	52	29.95
8	4925	53	29.95
8	5104	54	29.95
8	5287	55	29.95
8	5466	56	29.95
8	5649	57	29.95
8	5828	58	29.95
8	6007	59	29.95
8	6190	60	29.95
8	6377	61	29.95
8	6564	62	29.95
8	6751	63	29.95
8	6942	64	29.95
8	7133	65	29.95
8	7324	66	29.95
8	7515	67	29.95
8	7710	68	29.95
8	7905	69	29.95
8	8096	70	29.95
8	8291	71	29.95
8	8490	72	29.95
8	8689	73	29.95
8	8884	74	29.95
8	9083	75	29.95
8	9286	76	29.95
8	9489	77	29.95
8	9688	78	29.95
8	9891	79	29.95
8	10094	80	29.95
8	10297	81	29.95
8	10502	82	29.95
8	10705	83	29.95
8	10888	84	29.95
8	11047	85	29.95
8	11194	86	29.95
8	11337	87	29.95
9	13	12	33.666398097449
9	14	13	32.833737898947
9	15	14	33.048660062233
9	16	15	33.547335362565
9	17	16	33.929404732809
9	18	17	33.065620407907
9	19	18	33.039368149222
9	20	19	33.137525539533
9	21	20	33.70762183975
9	22	21	33.633140098865
9	76	22	33.475878867067
9	136	23	33.204857964921
9	202	24	33.632007319576
9	341	25	33.221930951441
9	488	26	33.865587667134
9	647	27	32.81774202249
9	806	28	33.589010767793
9	965	29	33.706579490137
9	1120	30	33.229348680799
9	1279	31	33.191045679888
9	1450	32	33.239665003822
9	1617	33	33.542684180467
9	1784	34	33.233328608368
9	1943	35	33.502355480779
9	2098	36	33.499043310914
9	2245	37	33.913854997992
9	2400	38	33.064502581293
9	2559	39	33.581446229401
9	2726	40	34.015164111371
9	2897	41	33.740950335379
9	3080	42	33.326349439195
9	3263	43	32.970049375182
9	3438	44	33.63829492304
9	3605	45	32.854103110768
9	3768	46	33.104467015402
9	3927	47	33.102486823374
9	4086	48	33.686153723721
9	4253	49	33.41564106846
9	4416	50	33.801006461764
9	4583	51	33.631678467538
9	4754	52	33.700406474564
9	4925	53	32.979222208124
9	5104	54	32.839024674068
9	5287	55	33.934601673137
9	5466	56	32.966163049606
9	5649	57	33.594105292033
9	5828	58	33.953223758764
9	6007	59	33.059273306027
9	6190	60	33.476962070309
9	6377	61	33.564495234206
9	6564	62	25.588258507795
9	6751	63	18.676287971609
9	6942	64	10.676287971609
9	7133	65	4.0353685911952
9	7324	66	0.25422095372125
9	7515	67	0.089121712786807
9	7710	68	0
9	7905	69	0
9	8096	70	0
9	8291	71	1.422421754105
9	8490	72	3.0302131664939
9	8689	73	4.4186040203203
9	8884	74	6.7159536859253
9	9083	75	8.4734414055179
9	9286	76	0.81987128654496
9	9489	77	0.24619304773687
9	9688	78	0.037676938214003
9	9891	79	0
9	10094	80	0
9	10297	81	0
9	10502	82	1.8919869358069
9	10705	83	1.7416160203358
9	10888	84	0.76123972426597
9	11047	85	0.091491813501167
9	11194	86	0.033266212010892
9	11337	87	0
10	14	13	30.1
10	15	14	30.1
10	16	15	60.231478162654
10	17	16	90.221171441854
10	18	17	120.55764566689
10	19	18	150.61672567379
10	20	19	180.78775327496
10	21	20	210.75360619743
10	22	21	240.93250316003
10	76	22	271.89209865103
10	136	23	302.27245839446
10	202	24	332.58085012307
10	341	25	363.67950741189
10	488	26	394.50958198098
10	647	27	425.41054310584
10	806	28	455.97141817867
10	965	29	486.51699032911
10	1120	30	517.00961933369
10	1279	31	547.10457575172
10	1450	32	577.91375486165
10	1617	33	607.94600089385
10	1784	34	637.99131096354
10	1943	35	668.60818122934
10	2098	36	699.58552771435
10	2245	37	729.61153353722
10	2400	38	760.31783303228
10	2559	39	790.38335548696
10	2726	40	821.50925959588
10	2897	41	851.66382653853
10	3080	42	881.64274810707
10	3263	43	912.22430088014
10	3438	44	942.44119677295
10	3605	45	973.10855597965
10	3768	46	1003.3416752972
10	3927	47	1033.6448051866
10	4086	48	1063.6618445829
10	4253	49	1094.0755209412
10	4416	50	1124.1665224147
10	4583	51	1154.6740627575
10	4754	52	1178.6397535169
10	4925	53	1196.0292085669
10	5104	54	1205.4186636169
10	5287	55	1206.8081186669
10	5466	56	1207.1038616559
10	5649	57	1207.2560700578
10	5828	58	1207.293133789
10	6007	59	1207.293133789
10	6190	60	1207.293133789
10	6377	61	1207.293133789
10	6564	62	1209.3252635602
10	6751	63	1213.2926162295
10	6942	64	1219.2578269711
10	7133	65	1226.6069599052
10	7324	66	1232.1428837003
10	7515	67	1232.2751386935
10	7710	68	1232.3981568227
10	7905	69	1232.4025132437
10	8096	70	1232.4025132437
10	8291	71	1232.4025132437
10	8490	72	1232.4025132437
10	8689	73	1234.1035296165
10	8884	74	1234.1035296165
10	9083	75	1234.1035296165
10	9286	76	1234.1035296165
10	9489	77	1234.1035296165
10	9688	78	1236.0371618057
10	9891	79	1236.0371618057
10	10094	80	1236.0371618057
10	10297	81	1236.0371618057
10	10502	82	1236.0371618057
10	10705	83	1237.9767003341
10	10888	84	1241.6934759274
10	11047	85	1244.3008851274
10	11194	86	1245.068174988
10	11337	87	1245.2139624447
11	14	13	26.65
11	15	14	26.65
11	16	15	26.65
11	17	16	26.65
11	18	17	29.95
11	19	18	29.95
11	20	19	29.95
11	21	20	29.95
11	22	21	29.95
11	76	22	29.95
11	136	23	29.95
11	202	24	29.95
11	341	25	29.95
11	488	26	29.95
11	647	27	29.95
11	806	28	29.95
11	965	29	29.95
11	1120	30	29.95
11	1279	31	29.95
11	1450	32	29.95
11	1617	33	29.95
11	1784	34	29.95
11	1943	35	29.95
11	2098	36	29.95
11	2245	37	29.95
11	2400	38	29.95
11	2559	39	29.95
11	2726	40	29.95
11	2897	41	29.95
11	3080	42	29.95
11	3263	43	29.95
11	3438	44	29.95
11	3605	45	29.95
11	3768	46	29.95
11	3927	47	29.95
11	4086	48	29.95
11	4253	49	29.95
11	4416	50	29.95
11	4583	51	29.95
11	4754	52	29.95
11	4925	53	29.95
11	5104	54	29.95
11	5287	55	29.95
11	5466	56	29.95
11	5649	57	29.95
11	5828	58	29.95
11	6007	59	29.95
11	6190	60	29.95
11	6377	61	29.95
11	6564	62	29.95
11	6751	63	29.95
11	6942	64	29.95
11	7133	65	29.95
11	7324	66	29.95
11	7515	67	29.95
11	7710	68	29.95
11	7905	69	29.95
11	8096	70	29.95
11	8291	71	29.95
11	8490	72	29.95
11	8689	73	29.95
11	8884	74	29.95
11	9083	75	29.95
11	9286	76	29.95
11	9489	77	29.95
11	9688	78	29.95
11	9891	79	29.95
11	10094	80	29.95
11	10297	81	29.95
11	10502	82	29.95
11	10705	83	29.95
11	10888	84	29.95
11	11047	85	29.95
11	11194	86	29.95
11	11337	87	29.95
12	14	13	-0.83266019850271
12	15	14	0.21492216328625
12	16	15	0.49867530033225
12	17	16	0.3820693702437
12	18	17	-0.86378432490164
12	19	18	-0.026252258685417
12	20	19	0.098157390311826
12	21	20	0.57009630021639
12	22	21	-0.074481740884949
12	76	22	-0.15726123179775
12	136	23	-0.27102090214612
12	202	24	0.42714935465483
12	341	25	-0.41007636813447
12	488	26	0.64365671569249
12	647	27	-1.0478456446435
12	806	28	0.77126874530222
12	965	29	0.117568722344
12	1120	30	-0.47723080933793
12	1279	31	-0.038303000910673
12	1450	32	0.048619323933963
12	1617	33	0.30301917664474
12	1784	34	-0.30935557209887
12	1943	35	0.2690268724109
12	2098	36	-0.0033121698652394
12	2245	37	0.41481168707833
12	2400	38	-0.84935241669882
12	2559	39	0.51694364810828
12	2726	40	0.43371788196964
12	2897	41	-0.27421377599239
12	3080	42	-0.4146008961834
12	3263	43	-0.35630006401334
12	3438	44	0.66824554785853
12	3605	45	-0.78419181227218
12	3768	46	0.25036390463356
12	3927	47	-0.001980192027986
12	4086	48	0.58366690034745
12	4253	49	-0.27051265526097
12	4416	50	0.3853653933038
12	4583	51	-0.16932799422648
12	4754	52	0.068728007026948
12	4925	53	-0.7211842664401
12	5104	54	-0.14019753405591
12	5287	55	1.0955769990687
12	5466	56	-0.96843862353126
12	5649	57	0.6279422424268
12	5828	58	0.35911846673116
12	6007	59	-0.89395045273704
12	6190	60	0.4176887642825
12	6377	61	0.087533163896296
12	6564	62	-7.9762367264106
12	6751	63	-6.9119705361858
12	6942	64	-8
12	7133	65	-6.640919380414
12	7324	66	-3.781147637474
12	7515	67	-0.16509924093444
12	7710	68	-0.089121712786807
12	7905	69	0
12	8096	70	0
12	8291	71	1.422421754105
12	8490	72	1.6077914123889
12	8689	73	1.3883908538264
12	8884	74	2.297349665605
12	9083	75	1.7574877195925
12	9286	76	-7.6535701189729
12	9489	77	-0.57367823880809
12	9688	78	-0.20851610952286
12	9891	79	-0.037676938214003
12	10094	80	0
12	10297	81	0
12	10502	82	1.8919869358069
12	10705	83	-0.15037091547108
12	10888	84	-0.98037629606987
12	11047	85	-0.66974791076481
12	11194	86	-0.058225601490275
12	11337	87	-0.033266212010892
13	14	13	-0.62498904788186
13	15	14	7.7505909047172
13	16	15	10.247828825346
13	17	16	9.4792204063197
13	18	17	-0.83858796562536
13	19	18	5.8265012007196
13	20	19	6.8539517297321
13	21	20	10.905247495119
13	22	21	5.643336671324
13	76	22	4.9216639950414
13	136	23	3.9250235180966
13	202	24	9.7088246755106
13	341	25	2.8166059395439
13	488	26	11.584916703798
13	647	27	-2.3292455230774
13	806	28	12.474493123076
13	965	29	7.2287150088839
13	1120	30	2.2807089910468
13	1279	31	5.7825609121339
13	1450	32	6.4956368633078
13	1617	33	8.6639525780112
13	1784	34	3.6262130446906
13	1943	35	8.3720460823219
13	2098	36	6.171974907568
13	2245	37	9.7396905412666
13	2400	38	-0.72374657129846
13	2559	39	10.412071759139
13	2726	40	9.9420806779142
13	2897	41	4.0563736824187
13	3080	42	2.8070236228561
13	3263	43	3.1801814419147
13	3438	44	11.666272243151
13	3605	45	-0.23824021259615
13	3768	46	8.0558549793929
13	3927	47	6.0419132659309
13	4086	48	11.004677703245
13	4253	49	3.990333883229
13	4416	50	9.4472437881682
13	4583	51	4.874083080604
13	4754	52	6.8296245881617
13	4925	53	0.2825034839122
13	5104	54	4.8560763027955
13	5287	55	15.316843844227
13	5466	56	-1.6841891106368
13	5649	57	11.316881909436
13	5828	58	9.302366266051
13	6007	59	-1.0798378179862
13	6190	60	9.5606782053785
13	6377	61	6.9303271744703
13	6564	62	0.973
13	6751	63	0.973
13	6942	64	0.973
13	7133	65	0.973
13	7324	66	0.973
13	7515	67	0.973
13	7710	68	0.973
13	7905	69	0.973
13	8096	70	0.973
13	8291	71	1.6664948472053
13	8490	72	2.4328879533169
13	8689	73	2.8095975079084
13	8884	74	5.1803241453625
13	9083	75	5.1639254472598
13	9286	76	0.973
13	9489	77	0.973
13	9688	78	0.973
13	9891	79	0.973
13	10094	80	0.973
13	10297	81	0.973
13	10502	82	2.0645822037359
13	10705	83	0.973
13	10888	84	0.973
13	11047	85	0.973
13	11194	86	1.1111379616741
13	11337	87	0.973
14	14	13	33.319453552218
14	15	14	31.253658509991
14	16	15	33.664863436602
14	17	16	32.309299474528
14	18	17	32.711240272298
14	19	18	33.148158603259
14	20	19	32.276064691824
14	21	20	32.293967342937
14	22	21	32.493646337089
14	76	22	32.984619195224
14	136	23	32.590021981481
14	202	24	32.59985152676
14	341	25	33.071442538609
14	488	26	32.589852874889
14	647	27	32.701013618176
14	806	28	33.147750974079
14	965	29	33.162544252669
14	1120	30	32.903346456556
14	1279	31	33.086732448397
14	1450	32	33.51990341555
14	1617	33	32.954456607373
14	1784	34	33.305168838675
14	1943	35	32.700690214957
14	2098	36	33.5221771005
14	2245	37	32.649402187641
14	2400	38	32.738745169741
14	2559	39	32.579353563748
14	2726	40	33.585022212907
14	2897	41	32.558259959302
14	3080	42	32.874316958156
14	3263	43	33.714693415355
14	3438	44	32.668224232299
14	3605	45	33.511953167586
14	3768	46	33.651840632052
14	3927	47	33.683010255596
14	4086	48	32.919386972177
14	4253	49	33.432480098823
14	4416	50	33.297340027026
14	4583	51	33.731971482017
14	4754	52	33.478580975176
14	4925	53	32.826996006448
14	5104	54	33.581115517851
14	5287	55	33.225500508239
14	5466	56	33.101491329404
14	5649	57	33.243907104157
14	5828	58	26.53825386069
14	6007	59	18.53825386069
14	6190	60	11.464081848066
14	6377	61	3.8675745281182
14	6564	62	0.3022218066023
14	6751	63	0.085269504153509
14	6942	64	0.051781580481288
14	7133	65	0
14	7324	66	0
14	7515	67	0
14	7710	68	2.2695467533777
14	7905	69	4.2287888075225
14	8096	70	6.6262166254455
14	8291	71	9.1150525448029
14	8490	72	2.4316904018071
14	8689	73	0.47378115140156
14	8884	74	0.025092095558426
14	9083	75	0
14	9286	76	0
14	9489	77	0
14	9688	78	1.8957580745337
14	9891	79	1.808629611606
14	10094	80	0.27307423194266
14	10297	81	0.12140502299746
14	10502	82	0.078836327597907
14	10705	83	0
14	10888	84	0
14	11047	85	0
14	11194	86	1.7132791149197
14	11337	87	0.80964584695166
15	15	14	-2.065795042227
15	16	15	2.4112049266114
15	17	16	-1.3555639620739
15	18	17	0.40194079776936
15	19	18	0.43691833096091
15	20	19	-0.87209391143448
15	21	20	0.017902651112323
15	22	21	0.19967899415207
15	76	22	0.49097285813536
15	136	23	-0.39459721374278
15	202	24	0.0098295452784782
15	341	25	0.47159101184892
15	488	26	-0.48158966371916
15	647	27	0.1111607432867
15	806	28	0.44673735590305
15	965	29	0.014793278590048
15	1120	30	-0.25919779611286
15	1279	31	0.18338599184062
15	1450	32	0.43317096715327
15	1617	33	-0.56544680817751
15	1784	34	0.35071223130217
15	1943	35	-0.60447862371802
15	2098	36	0.82148688554298
15	2245	37	-0.87277491285931
15	2400	38	0.089342982100789
15	2559	39	-0.15939160599373
15	2726	40	1.0056686491589
15	2897	41	-1.0267622536048
15	3080	42	0.31605699885404
15	3263	43	0.84037645719945
15	3438	44	-1.0464691830566
15	3605	45	0.8437289352878
15	3768	46	0.13988746446557
15	3927	47	0.031169623543974
15	4086	48	-0.76362328341929
15	4253	49	0.51309312664671
15	4416	50	-0.13514007179765
15	4583	51	0.43463145499118
15	4754	52	-0.25339050684124
15	4925	53	-0.65158496872755
15	5104	54	0.75411951140268
15	5287	55	-0.35561500961194
15	5466	56	-0.12400917883497
15	5649	57	0.14241577475332
15	5828	58	-6.7056532434669
15	6007	59	-8
15	6190	60	-7.0741720126242
15	6377	61	-7.596507319948
15	6564	62	-3.5653527215159
15	6751	63	-0.21695230244879
15	6942	64	-0.033487923672221
15	7133	65	-0.051781580481288
15	7324	66	0
15	7515	67	0
15	7710	68	2.2695467533777
15	7905	69	1.9592420541449
15	8096	70	2.397427817923
15	8291	71	2.4888359193574
15	8490	72	-6.6833621429958
15	8689	73	-1.9579092504056
15	8884	74	-0.44868905584314
15	9083	75	-0.025092095558426
15	9286	76	0
15	9489	77	0
15	9688	78	1.8957580745337
15	9891	79	-0.087128462927659
15	10094	80	-1.5355553796633
15	10297	81	-0.1516692089452
15	10502	82	-0.042568695399553
15	10705	83	-0.078836327597907
15	10888	84	0
15	11047	85	0
15	11194	86	1.7132791149197
15	11337	87	-0.90363326796805
16	15	14	0.973
16	16	15	25.821204849023
16	17	16	0.973
16	18	17	9.090085848345
16	19	18	9.5642147577799
16	20	19	-1.0105198976403
16	21	20	5.9184588071214
16	22	21	7.4105076899219
16	76	22	9.9192452645146
16	136	23	2.7805176154246
16	202	24	5.9603560211663
16	341	25	9.8054774052067
16	488	26	2.0972236170567
16	647	27	6.7939487773413
16	806	28	9.642468383707
16	965	29	6.1971095645413
16	1120	30	3.9326299356394
16	1279	31	7.5144706730065
16	1450	32	9.7054963520594
16	1617	33	1.5150245350458
16	1784	34	8.9444237376213
16	1943	35	1.1539704700624
16	2098	36	12.843695428375
16	2245	37	-0.9672984798845
16	2400	38	6.6358317571748
16	2559	39	4.6246243440204
16	2726	40	14.369542940542
16	2897	41	-2.1876427905797
16	3080	42	8.4819178410577
16	3263	43	13.104878848999
16	3438	44	0.973
16	3605	45	13.017630316894
16	3768	46	7.3883231863919
16	3927	47	6.5181404990012
16	4086	48	-0.064679234196599
16	4253	49	10.308952117684
16	4416	50	5.0421792558498
16	4583	51	9.81619183537
16	4754	52	4.1469277091693
16	4925	53	0.80656633424491
16	5104	54	12.331387093194
16	5287	55	3.2536082368874
16	5466	56	5.0680821274136
16	5649	57	7.2486669909588
16	5828	58	0.973
16	6007	59	0.973
16	6190	60	0.973
16	6377	61	0.973
16	6564	62	0.973
16	6751	63	0.973
16	6942	64	1.1120800483835
16	7133	65	0.973
16	7324	66	0.973
16	7515	67	0.973
16	7710	68	2.4619158859266
16	7905	69	3.3177208746223
16	8096	70	5.2850211280821
16	8291	71	7.0869649161014
16	8490	72	0.973
16	8689	73	0.973
16	8884	74	0.973
16	9083	75	0.973
16	9286	76	0.973
16	9489	77	0.973
16	9688	78	2.0682103430261
16	9891	79	1.1598173005712
16	10094	80	0.973
16	10297	81	0.973
16	10502	82	1.1129943234398
16	10705	83	0.973
16	10888	84	0.973
16	11047	85	0.973
16	11194	86	1.9005265642826
16	11337	87	0.973
17	15	14	30.131478162654
17	16	15	29.9896932792
17	17	16	30.336474225038
17	18	17	30.059080006901
17	19	18	30.171027601169
17	20	19	29.965852922465
17	21	20	30.178896962603
17	22	21	30.959595491
17	76	22	30.380359743427
17	136	23	30.30839172861
17	202	24	31.098657288818
17	341	25	30.830074569091
17	488	26	30.900961124859
17	647	27	30.560875072839
17	806	28	30.545572150437
17	965	29	30.492629004581
17	1120	30	30.09495641803
17	1279	31	30.809179109925
17	1450	32	30.032246032202
17	1617	33	30.045310069687
17	1784	34	30.6168702658
17	1943	35	30.977346485012
17	2098	36	30.026005822871
17	2245	37	30.706299495065
17	2400	38	30.065522454676
17	2559	39	31.125904108918
17	2726	40	30.154566942653
17	2897	41	29.978921568542
17	3080	42	30.58155277307
17	3263	43	30.216895892805
17	3438	44	30.667359206706
17	3605	45	30.23311931756
17	3768	46	30.303129889359
17	3927	47	30.017039396331
17	4086	48	30.41367635829
17	4253	49	30.09100147348
17	4416	50	30.507540342802
17	4583	51	23.965690759457
17	4754	52	17.389455049978
17	4925	53	9.3894550499776
17	5104	54	1.3894550499776
17	5287	55	0.2957429890359
17	5466	56	0.15220840189832
17	5649	57	0.037063731163592
17	5828	58	0
17	6007	59	0
17	6190	60	0
17	6377	61	2.0321297712508
17	6564	62	3.9673526692786
17	6751	63	5.9652107415604
17	6942	64	7.3491329341778
17	7133	65	5.5359237950626
17	7324	66	0.13225499322983
17	7515	67	0.1230181291831
17	7710	68	0.0043564209852771
17	7905	69	0
17	8096	70	0
17	8291	71	0
17	8490	72	1.7010163728264
17	8689	73	0
17	8884	74	0
17	9083	75	0
17	9286	76	0
17	9489	77	1.9336321891751
17	9688	78	0
17	9891	79	0
17	10094	80	0
17	10297	81	0
17	10502	82	1.939538528386
17	10705	83	3.7167755933478
17	10888	84	2.6074091999946
17	11047	85	0.76728986056856
17	11194	86	0.1457874567278
17	11337	87	0.089281312451092
18	16	15	30.1
18	17	16	30.1
18	18	17	59.61341693521
18	19	18	88.944335745351
18	20	19	118.64992806703
18	21	20	148.25585028025
18	22	21	177.88889429661
18	76	22	207.67796638229
18	136	23	237.68586818022
18	202	24	268.02642293632
18	341	25	298.03236278334
18	488	26	328.06859378708
18	647	27	357.43582171159
18	806	28	387.35298298564
18	965	29	417.75876508154
18	1120	30	447.16705312457
18	1279	31	477.35948724962
18	1450	32	507.03400738738
18	1617	33	536.39726286458
18	1784	34	566.79533193144
18	1943	35	596.57601296894
18	2098	36	627.00162550775
18	2245	37	657.3792373679
18	2400	38	687.04062748368
18	2559	39	716.58567052205
18	2726	40	746.07010808206
18	2897	41	776.04498610059
18	3080	42	806.26509967184
18	3263	43	836.20621790829
18	3438	44	865.91116867735
18	3605	45	890.26706257321
18	3768	46	906.62295646907
18	3927	47	915.94658797526
18	4086	48	918.2918541413
18	4253	49	918.53898238715
18	4416	50	918.55318922776
18	4583	51	918.55318922776
18	4754	52	918.55318922776
18	4925	53	918.55318922776
18	5104	54	920.72891102079
18	5287	55	924.81052100827
18	5466	56	930.48692145058
18	5649	57	938.54148603475
18	5828	58	943.07769077947
18	6007	59	943.55945926464
18	6190	60	943.56712867592
18	6377	61	943.56712867592
18	6564	62	943.56712867592
18	6751	63	943.56712867592
18	6942	64	946.03525698388
18	7133	65	946.03525698388
18	7324	66	946.03525698388
18	7515	67	946.03525698388
18	7710	68	946.03525698388
18	7905	69	947.99180618632
18	8096	70	947.99180618632
18	8291	71	947.99180618632
18	8490	72	947.99180618632
18	8689	73	947.99180618632
18	8884	74	949.40784724021
18	9083	75	949.40784724021
18	9286	76	949.40784724021
18	9489	77	949.40784724021
18	9688	78	949.40784724021
18	9891	79	951.85785623325
18	10094	80	955.62390878559
18	10297	81	955.67422395029
18	10502	82	955.67422395029
18	10705	83	955.67422395029
18	10888	84	955.67422395029
18	11047	85	957.53309229282
18	11194	86	961.31824831808
18	11337	87	964.15502113926
19	16	15	29.95
19	17	16	29.95
19	18	17	29.95
19	19	18	29.95
19	20	19	29.95
19	21	20	29.95
19	22	21	29.95
19	76	22	29.95
19	136	23	29.95
19	202	24	29.95
19	341	25	29.95
19	488	26	29.95
19	647	27	29.95
19	806	28	29.95
19	965	29	29.95
19	1120	30	29.95
19	1279	31	29.95
19	1450	32	29.95
19	1617	33	29.95
19	1784	34	29.95
19	1943	35	29.95
19	2098	36	29.95
19	2245	37	29.95
19	2400	38	29.95
19	2559	39	29.95
19	2726	40	29.95
19	2897	41	29.95
19	3080	42	29.95
19	3263	43	29.95
19	3438	44	29.95
19	3605	45	29.95
19	3768	46	29.95
19	3927	47	29.95
19	4086	48	29.95
19	4253	49	29.95
19	4416	50	29.95
19	4583	51	29.95
19	4754	52	29.95
19	4925	53	29.95
19	5104	54	29.95
19	5287	55	29.95
19	5466	56	29.95
19	5649	57	29.95
19	5828	58	29.95
19	6007	59	29.95
19	6190	60	29.95
19	6377	61	29.95
19	6564	62	29.95
19	6751	63	29.95
19	6942	64	29.95
19	7133	65	29.95
19	7324	66	29.95
19	7515	67	29.95
19	7710	68	29.95
19	7905	69	29.95
19	8096	70	29.95
19	8291	71	29.95
19	8490	72	29.95
19	8689	73	29.95
19	8884	74	29.95
19	9083	75	29.95
19	9286	76	29.95
19	9489	77	29.95
19	9688	78	29.95
19	9891	79	29.95
19	10094	80	29.95
19	10297	81	29.95
19	10502	82	29.95
19	10705	83	29.95
19	10888	84	29.95
19	11047	85	29.95
19	11194	86	29.95
19	11337	87	29.95
20	16	15	-0.14178488345351
20	17	16	0.34678094583796
20	18	17	-0.27739421813749
20	19	18	0.11194759426871
20	20	19	-0.20517467870377
20	21	20	0.2130440401379
20	22	21	0.7806985283969
20	76	22	-0.57923574757297
20	136	23	-0.071968014817685
20	202	24	0.79026556020835
20	341	25	-0.26858271972742
20	488	26	0.070886555768084
20	647	27	-0.34008605201961
20	806	28	-0.015302922402043
20	965	29	-0.052943145856261
20	1120	30	-0.39767258655047
20	1279	31	0.71422269189497
20	1450	32	-0.77693307772279
20	1617	33	0.013064037484583
20	1784	34	0.57156019611284
20	1943	35	0.36047621921171
20	2098	36	-0.95134066214086
20	2245	37	0.68029367219424
20	2400	38	-0.64077704038937
20	2559	39	1.0603816542425
20	2726	40	-0.97133716626558
20	2897	41	-0.1756453741109
20	3080	42	0.60263120452873
20	3263	43	-0.3646568802651
20	3438	44	0.4504633139004
20	3605	45	-0.43423988914583
20	3768	46	0.070010571798775
20	3927	47	-0.28609049302759
20	4086	48	0.3966369619593
20	4253	49	-0.32267488481011
20	4416	50	0.41653886932181
20	4583	51	-6.5418495833455
20	4754	52	-6.576235709479
20	4925	53	-8
20	5104	54	-8
20	5287	55	-1.0937120609417
20	5466	56	-0.14353458713758
20	5649	57	-0.11514467073473
20	5828	58	-0.037063731163592
20	6007	59	0
20	6190	60	0
20	6377	61	2.0321297712508
20	6564	62	1.9352228980279
20	6751	63	1.9978580722818
20	6942	64	1.3839221926173
20	7133	65	-1.8132091391151
20	7324	66	-5.4036688018328
20	7515	67	-0.0092368640467325
20	7710	68	-0.11866170819782
20	7905	69	-0.0043564209852771
20	8096	70	0
20	8291	71	0
20	8490	72	1.7010163728264
20	8689	73	-1.7010163728264
20	8884	74	0
20	9083	75	0
20	9286	76	0
20	9489	77	1.9336321891751
20	9688	78	-1.9336321891751
20	9891	79	0
20	10094	80	0
20	10297	81	0
20	10502	82	1.939538528386
20	10705	83	1.7772370649618
20	10888	84	-1.1093663933532
20	11047	85	-1.8401193394261
20	11194	86	-0.62150240384076
20	11337	87	-0.056506144276708
21	16	15	4.0236101888051
21	17	16	7.687877283448
21	18	17	3.0595349155069
21	19	18	5.916577321475
21	20	19	3.5595506768775
21	21	20	6.6544410033833
21	22	21	11.169799919374
21	76	22	0.92488560332763
21	136	23	4.6183424021835
21	202	24	11.311481055843
21	341	25	3.3087111821645
21	488	26	5.8543304131829
21	647	27	2.716221367799
21	806	28	5.1036638729063
21	965	29	4.8110313681686
21	1120	30	2.1954964772186
21	1279	31	10.600897372632
21	1450	32	-0.56222706905305
21	1617	33	5.1595296143785
21	1784	34	9.4555862731018
21	1943	35	8.0415273587752
21	2098	36	0.973
21	2245	37	10.300170681359
21	2400	38	0.42803263326415
21	2559	39	13.351527411285
21	2726	40	0.973
21	2897	41	3.7761353909163
21	3080	42	9.6688514311668
21	3263	43	2.460853150585
21	3438	44	8.5831075626506
21	3605	45	1.9573229888673
21	3768	46	5.6537178494498
21	3927	47	2.9868950781722
21	4086	48	8.0832235662643
21	4253	49	2.7385703356585
21	4416	50	8.2671853980573
21	4583	51	0.973
21	4754	52	0.973
21	4925	53	0.973
21	5104	54	0.973
21	5287	55	0.973
21	5466	56	0.973
21	5649	57	0.973
21	5828	58	0.973
21	6007	59	0.973
21	6190	60	0.973
21	6377	61	2.2040270529413
21	6564	62	3.1574822820329
21	6751	63	4.2895228315729
21	6942	64	3.9523110350794
21	7133	65	0.973
21	7324	66	0.973
21	7515	67	1.1156607178146
21	7710	68	0.973
21	7905	69	0.973
21	8096	70	0.973
21	8291	71	0.973
21	8490	72	1.8898347666379
21	8689	73	0.973
21	8884	74	0.973
21	9083	75	0.973
21	9286	76	0.973
21	9489	77	2.1050292501987
21	9688	78	0.973
21	9891	79	0.973
21	10094	80	0.973
21	10297	81	0.973
21	10502	82	2.1108334895164
21	10705	83	2.8859879721903
21	10888	84	0.973
21	11047	85	0.973
21	11194	86	0.973
21	11337	87	1.1130911650602
22	17	16	29.51341693521
22	18	17	29.330918810141
22	19	18	29.705592321683
22	20	19	29.605922213217
22	21	20	29.633044016359
22	22	21	29.789072085681
22	76	22	30.00790179793
22	136	23	30.340554756098
22	202	24	30.005939847019
22	341	25	30.036231003746
22	488	26	29.367227924508
22	647	27	29.917161274047
22	806	28	30.405782095899
22	965	29	29.408288043036
22	1120	30	30.192434125042
22	1279	31	29.674520137764
22	1450	32	29.363255477205
22	1617	33	30.398069066854
22	1784	34	29.780681037504
22	1943	35	30.425612538806
22	2098	36	30.377611860153
22	2245	37	29.661390115784
22	2400	38	29.545043038365
22	2559	39	29.484437560008
22	2726	40	29.974878018533
22	2897	41	30.220113571253
22	3080	42	29.941118236442
22	3263	43	29.704950769068
22	3438	44	24.355893895856
22	3605	45	16.355893895856
22	3768	46	9.3236315061918
22	3927	47	2.3452661660378
22	4086	48	0.24712824585361
22	4253	49	0.01420684060914
22	4416	50	0
22	4583	51	0
22	4754	52	0
22	4925	53	2.1757217930281
22	5104	54	4.0816099874792
22	5287	55	5.6764004423167
22	5466	56	8.054564584163
22	5649	57	4.5362047447199
22	5828	58	0.48176848517538
22	6007	59	0.0076694112815184
22	6190	60	0
22	6377	61	0
22	6564	62	0
22	6751	63	2.4681283079553
22	6942	64	0
22	7133	65	0
22	7324	66	0
22	7515	67	0
22	7710	68	1.9565492024412
22	7905	69	0
22	8096	70	0
22	8291	71	0
22	8490	72	0
22	8689	73	1.4160410538898
22	8884	74	0
22	9083	75	0
22	9286	76	0
22	9489	77	0
22	9688	78	2.450008993037
22	9891	79	3.7660525523426
22	10094	80	0.050315164696297
22	10297	81	0
22	10502	82	0
22	10705	83	0
22	10888	84	1.8588683425332
22	11047	85	3.7851560252602
22	11194	86	2.8367728211854
22	11337	87	0.32748213126005
23	18	17	30.1
23	19	18	30.1
23	20	19	61.027886148248
23	21	20	92.157009465881
23	22	21	123.95364954672
23	76	22	155.61198618971
23	136	23	186.76984328026
23	202	24	217.82682887486
23	341	25	248.81749579015
23	488	26	279.93053248034
23	647	27	311.66084508611
23	806	28	343.46849308604
23	965	29	375.3725330845
23	1120	30	407.2213732971
23	1279	31	438.80324968093
23	1450	32	470.70713983162
23	1617	33	501.6910310562
23	1784	34	530.73047783633
23	1943	35	557.4423575944
23	2098	36	576.52396665354
23	2245	37	587.60557571269
23	2400	38	590.68718477183
23	2559	39	591.1160942581
23	2726	40	591.21435320744
23	2897	41	591.22573314058
23	3080	42	591.22573314058
23	3263	43	591.22573314058
23	3438	44	591.22573314058
23	3605	45	592.9903367438
23	3768	46	596.9375132903
23	3927	47	603.0385726466
23	4086	48	611.53535395946
23	4253	49	616.23327150085
23	4416	50	616.3054473279
23	4583	51	616.3054473279
23	4754	52	616.3054473279
23	4925	53	616.3054473279
23	5104	54	618.58248813601
23	5287	55	618.58248813601
23	5466	56	618.58248813601
23	5649	57	618.58248813601
23	5828	58	618.58248813601
23	6007	59	620.80603699607
23	6190	60	620.80603699607
23	6377	61	620.80603699607
23	6564	62	620.80603699607
23	6751	63	620.80603699607
23	6942	64	622.99552017066
23	7133	65	622.99552017066
23	7324	66	622.99552017066
23	7515	67	622.99552017066
23	7710	68	622.99552017066
23	7905	69	624.37294221948
23	8096	70	624.37294221948
23	8291	71	624.37294221948
23	8490	72	624.37294221948
23	8689	73	624.37294221948
23	8884	74	625.75879928015
23	9083	75	626.433186064
23	9286	76	626.83040549249
23	9489	77	626.84614829744
23	9688	78	626.84614829744
23	9891	79	626.84614829744
23	10094	80	626.84614829744
23	10297	81	628.62730102842
23	10502	82	630.41138402556
23	10705	83	631.09232273482
23	10888	84	631.3209532405
23	11047	85	631.35941032358
23	11194	86	631.35941032358
23	11337	87	631.35941032358
24	18	17	26.65
24	19	18	26.65
24	20	19	26.65
24	21	20	26.65
24	22	21	26.65
24	76	22	26.65
24	136	23	26.65
24	202	24	26.65
24	341	25	26.65
24	488	26	26.65
24	647	27	26.65
24	806	28	26.65
24	965	29	26.65
24	1120	30	26.65
24	1279	31	26.65
24	1450	32	26.65
24	1617	33	26.65
24	1784	34	26.65
24	1943	35	26.65
24	2098	36	29.95
24	2245	37	29.95
24	2400	38	29.95
24	2559	39	29.95
24	2726	40	29.95
24	2897	41	29.95
24	3080	42	29.95
24	3263	43	29.95
24	3438	44	29.95
24	3605	45	29.95
24	3768	46	29.95
24	3927	47	29.95
24	4086	48	29.95
24	4253	49	29.95
24	4416	50	29.95
24	4583	51	29.95
24	4754	52	29.95
24	4925	53	29.95
24	5104	54	29.95
24	5287	55	29.95
24	5466	56	29.95
24	5649	57	29.95
24	5828	58	29.95
24	6007	59	29.95
24	6190	60	29.95
24	6377	61	29.95
24	6564	62	29.95
24	6751	63	29.95
24	6942	64	29.95
24	7133	65	29.95
24	7324	66	29.95
24	7515	67	29.95
24	7710	68	29.95
24	7905	69	29.95
24	8096	70	29.95
24	8291	71	29.95
24	8490	72	29.95
24	8689	73	29.95
24	8884	74	29.95
24	9083	75	29.95
24	9286	76	29.95
24	9489	77	29.95
24	9688	78	29.95
24	9891	79	29.95
24	10094	80	29.95
24	10297	81	29.95
24	10502	82	29.95
24	10705	83	29.95
24	10888	84	29.95
24	11047	85	29.95
24	11194	86	29.95
24	11337	87	29.95
25	18	17	-0.18249812506838
25	19	18	0.37467351154191
25	20	19	-0.099670108465943
25	21	20	0.027121803141199
25	22	21	0.15602806932293
25	76	22	0.21882971224841
25	136	23	0.33265295816818
25	202	24	-0.33461490907939
25	341	25	0.030291156726889
25	488	26	-0.66900307923788
25	647	27	0.54993334953906
25	806	28	0.48862082185224
25	965	29	-0.99749405286275
25	1120	30	0.78414608200546
25	1279	31	-0.51791398727801
25	1450	32	-0.31126466055866
25	1617	33	1.0348135896493
25	1784	34	-0.61738802934997
25	1943	35	0.64493150130147
25	2098	36	-0.048000678652897
25	2245	37	-0.71622174436925
25	2400	38	-0.11634707741905
25	2559	39	-0.060605478356592
25	2726	40	0.49044045852497
25	2897	41	0.24523555272026
25	3080	42	-0.27899533481104
25	3263	43	-0.23616746737389
25	3438	44	-5.349056873212
25	3605	45	-8
25	3768	46	-7.0322623896645
25	3927	47	-6.9783653401539
25	4086	48	-2.0981379201842
25	4253	49	-0.23292140524447
25	4416	50	-0.01420684060914
25	4583	51	0
25	4754	52	0
25	4925	53	2.1757217930281
25	5104	54	1.9058881944511
25	5287	55	1.5947904548375
25	5466	56	2.3781641418464
25	5649	57	-3.5183598394431
25	5828	58	-4.0544362595445
25	6007	59	-0.47409907389386
25	6190	60	-0.0076694112815184
25	6377	61	0
25	6564	62	0
25	6751	63	2.4681283079553
25	6942	64	-2.4681283079553
25	7133	65	0
25	7324	66	0
25	7515	67	0
25	7710	68	1.9565492024412
25	7905	69	-1.9565492024412
25	8096	70	0
25	8291	71	0
25	8490	72	0
25	8689	73	1.4160410538898
25	8884	74	-1.4160410538898
25	9083	75	0
25	9286	76	0
25	9489	77	0
25	9688	78	2.450008993037
25	9891	79	1.3160435593056
25	10094	80	-3.7157373876464
25	10297	81	-0.050315164696297
25	10502	82	0
25	10705	83	0
25	10888	84	1.8588683425332
25	11047	85	1.926287682727
25	11194	86	-0.94838320407487
25	11337	87	-2.5092906899253
26	18	17	3.5659294784843
26	19	18	7.6468193284709
26	20	19	4.2242639566179
26	21	20	5.1370076165296
26	22	21	6.1091648300008
26	76	22	6.6363378961166
26	136	23	7.5861511450319
26	202	24	2.633453330962
26	341	25	5.281494862168
26	488	26	0.13151192067816
26	647	27	8.9918679139167
26	806	28	8.7541037058621
26	965	29	0.973
26	1120	30	10.814761032162
26	1279	31	1.2515314223426
26	1450	32	2.6625632961871
26	1617	33	12.752220181473
26	1784	34	0.55546269446517
26	1943	35	9.9086391126557
26	2098	36	4.8136081350558
26	2245	37	-0.16824813471591
26	2400	38	4.0892855805966
26	2559	39	4.4695158317391
26	2726	40	8.586872315546
26	2897	41	6.9034153712616
26	3080	42	3.0207544596811
26	3263	43	3.2736282701031
26	3438	44	0.973
26	3605	45	0.973
26	3768	46	0.973
26	3927	47	0.973
26	4086	48	0.973
26	4253	49	0.973
26	4416	50	0.973
26	4583	51	0.973
26	4754	52	0.973
26	4925	53	2.3567457045804
26	5104	54	3.1879396631089
26	5287	55	3.5824191510373
26	5466	56	6.1631980741686
26	5649	57	0.973
26	5828	58	0.973
26	6007	59	0.973
26	6190	60	0.973
26	6377	61	0.973
26	6564	62	0.973
26	6751	63	2.6985408453233
26	6942	64	0.973
26	7133	65	0.973
26	7324	66	0.973
26	7515	67	0.973
26	7710	68	2.1276442685669
26	7905	69	0.973
26	8096	70	0.973
26	8291	71	0.973
26	8490	72	0.973
26	8689	73	1.6618186377874
26	8884	74	0.973
26	9083	75	0.973
26	9286	76	0.973
26	9489	77	0.973
26	9688	78	2.6761601040378
26	9891	79	2.4910744448912
26	10094	80	0.973
26	10297	81	0.973
26	10502	82	0.973
26	10705	83	0.973
26	10888	84	2.0330145243656
26	11047	85	3.0548089312085
26	11194	86	0.973
26	11337	87	0.973
27	19	18	30.1
27	20	19	30.1
27	21	20	58.425111409198
27	22	21	87.811350985196
27	76	22	118.1086132508
27	136	23	148.8698477452
27	202	24	180.98812635724
27	341	25	205.10640496928
27	488	26	221.22468358132
27	647	27	229.53950124141
27	806	28	230.17218550143
27	965	29	230.56817462316
27	1120	30	230.76636401386
27	1279	31	230.77483889991
27	1450	32	230.77483889991
27	1617	33	230.77483889991
27	1784	34	230.77483889991
27	1943	35	232.68125449797
27	2098	36	236.97220273776
27	2245	37	243.6415760693
27	2400	38	251.56239064725
27	2559	39	255.11851191684
27	2726	40	255.82572128943
27	2897	41	255.82806586784
27	3080	42	255.82806586784
27	3263	43	255.82806586784
27	3438	44	255.82806586784
27	3605	45	257.92221215206
27	3768	46	257.92221215206
27	3927	47	257.92221215206
27	4086	48	257.92221215206
27	4253	49	257.92221215206
27	4416	50	259.64986628709
27	4583	51	259.73393567358
27	4754	52	259.81435921421
27	4925	53	259.81435921421
27	5104	54	259.81435921421
27	5287	55	259.81435921421
27	5466	56	261.81557755538
27	5649	57	263.1638181698
27	5828	58	263.61021735112
27	6007	59	263.72502033016
27	6190	60	263.7558962283
27	6377	61	263.7558962283
27	6564	62	263.7558962283
27	6751	63	263.7558962283
27	6942	64	265.145841596
27	7133	65	266.82859460522
27	7324	66	267.15809530837
27	7515	67	267.16935055574
27	7710	68	267.16935055574
27	7905	69	267.16935055574
27	8096	70	267.16935055574
27	8291	71	269.6422396517
27	8490	72	269.6422396517
27	8689	73	269.6422396517
27	8884	74	269.6422396517
27	9083	75	269.6422396517
27	9286	76	271.52227678056
27	9489	77	275.86118723772
27	9688	78	277.86179771831
27	9891	79	278.01767763271
27	10094	80	278.08335012999
27	10297	81	278.08335012999
27	10502	82	278.08335012999
27	10705	83	278.08335012999
27	10888	84	280.15542216638
27	11047	85	280.15542216638
27	11194	86	280.15542216638
27	11337	87	280.15542216638
28	19	18	26.65
28	20	19	26.65
28	21	20	26.65
28	22	21	26.65
28	76	22	26.65
28	136	23	29.95
28	202	24	29.95
28	341	25	29.95
28	488	26	29.95
28	647	27	29.95
28	806	28	29.95
28	965	29	29.95
28	1120	30	29.95
28	1279	31	29.95
28	1450	32	29.95
28	1617	33	29.95
28	1784	34	29.95
28	1943	35	29.95
28	2098	36	29.95
28	2245	37	29.95
28	2400	38	29.95
28	2559	39	29.95
28	2726	40	29.95
28	2897	41	29.95
28	3080	42	29.95
28	3263	43	29.95
28	3438	44	29.95
28	3605	45	29.95
28	3768	46	29.95
28	3927	47	29.95
28	4086	48	29.95
28	4253	49	29.95
28	4416	50	29.95
28	4583	51	29.95
28	4754	52	29.95
28	4925	53	29.95
28	5104	54	29.95
28	5287	55	29.95
28	5466	56	29.95
28	5649	57	29.95
28	5828	58	29.95
28	6007	59	29.95
28	6190	60	29.95
28	6377	61	29.95
28	6564	62	29.95
28	6751	63	29.95
28	6942	64	29.95
28	7133	65	29.95
28	7324	66	29.95
28	7515	67	29.95
28	7710	68	29.95
28	7905	69	29.95
28	8096	70	29.95
28	8291	71	29.95
28	8490	72	29.95
28	8689	73	29.95
28	8884	74	29.95
28	9083	75	29.95
28	9286	76	29.95
28	9489	77	29.95
28	9688	78	29.95
28	9891	79	29.95
28	10094	80	29.95
28	10297	81	29.95
28	10502	82	29.95
28	10705	83	29.95
28	10888	84	29.95
28	11047	85	29.95
28	11194	86	29.95
28	11337	87	29.95
29	19	18	30.927886148248
29	20	19	31.129123317633
29	21	20	31.796640080839
29	22	21	31.658336642987
29	76	22	31.157857090557
29	136	23	31.056985594597
29	202	24	30.990666915287
29	341	25	31.113036690195
29	488	26	31.730312605769
29	647	27	31.807647999932
29	806	28	31.904039998454
29	965	29	31.848840212597
29	1120	30	31.581876383835
29	1279	31	31.903890150689
29	1450	32	30.983891224578
29	1617	33	29.039446780134
29	1784	34	26.711879758073
29	1943	35	19.08160905914
29	2098	36	11.08160905914
29	2245	37	3.0816090591404
29	2400	38	0.42890948627741
29	2559	39	0.098258949333579
29	2726	40	0.0113799331415
29	2897	41	0
29	3080	42	0
29	3263	43	0
29	3438	44	1.7646036032238
29	3605	45	3.9471765464987
29	3768	46	6.1010593562969
29	3927	47	8.4967813128605
29	4086	48	4.6979175413878
29	4253	49	0.072175827054952
29	4416	50	0
29	4583	51	0
29	4754	52	0
29	4925	53	2.2770408081124
29	5104	54	0
29	5287	55	0
29	5466	56	0
29	5649	57	0
29	5828	58	2.2235488600563
29	6007	59	0
29	6190	60	0
29	6377	61	0
29	6564	62	0
29	6751	63	2.1894831745885
29	6942	64	0
29	7133	65	0
29	7324	66	0
29	7515	67	0
29	7710	68	1.3774220488267
29	7905	69	0
29	8096	70	0
29	8291	71	0
29	8490	72	0
29	8689	73	1.3858570606681
29	8884	74	0.67438678384343
29	9083	75	0.39721942849079
29	9286	76	0.015742804949322
29	9489	77	0
29	9688	78	0
29	9891	79	0
29	10094	80	1.7811527309823
29	10297	81	1.78408299714
29	10502	82	0.6809387092582
29	10705	83	0.22863050568389
29	10888	84	0.038457083077844
29	11047	85	0
29	11194	86	0
29	11337	87	0
30	20	19	0.20123716938542
30	21	20	0.66751676320564
30	22	21	-0.1383034378523
30	76	22	-0.50047955242917
30	136	23	-0.10087149596075
30	202	24	-0.066318679309916
30	341	25	0.12236977490829
30	488	26	0.61727591557428
30	647	27	0.077335394162219
30	806	28	0.096391998522449
30	965	29	-0.05519978585653
30	1120	30	-0.26696382876253
30	1279	31	0.32201376685407
30	1450	32	-0.91999892611057
30	1617	33	-1.9444444444444
30	1784	34	-2.3275670220612
30	1943	35	-7.6302706989324
30	2098	36	-8
30	2245	37	-8
30	2400	38	-2.652699572863
30	2559	39	-0.33065053694383
30	2726	40	-0.086879016192079
30	2897	41	-0.0113799331415
30	3080	42	0
30	3263	43	0
30	3438	44	1.7646036032238
30	3605	45	2.1825729432749
30	3768	46	2.1538828097982
30	3927	47	2.3957219565636
30	4086	48	-3.7988637714727
30	4253	49	-4.6257417143329
30	4416	50	-0.072175827054952
30	4583	51	0
30	4754	52	0
30	4925	53	2.2770408081124
30	5104	54	-2.2770408081124
30	5287	55	0
30	5466	56	0
30	5649	57	0
30	5828	58	2.2235488600563
30	6007	59	-2.2235488600563
30	6190	60	0
30	6377	61	0
30	6564	62	0
30	6751	63	2.1894831745885
30	6942	64	-2.1894831745885
30	7133	65	0
30	7324	66	0
30	7515	67	0
30	7710	68	1.3774220488267
30	7905	69	-1.3774220488267
30	8096	70	0
30	8291	71	0
30	8490	72	0
30	8689	73	1.3858570606681
30	8884	74	-0.71147027682463
30	9083	75	-0.27716735535263
30	9286	76	-0.38147662354147
30	9489	77	-0.015742804949322
30	9688	78	0
30	9891	79	0
30	10094	80	1.7811527309823
30	10297	81	0.0029302661577049
30	10502	82	-1.1031442878818
30	10705	83	-0.45230820357431
30	10888	84	-0.19017342260604
30	11047	85	-0.038457083077844
30	11194	86	0
30	11337	87	0
31	20	19	6.9079658926419
31	21	20	10.7287704004
31	22	21	4.5131328336854
31	76	22	1.6492477401462
31	136	23	4.6204567243723
31	202	24	4.8592463853801
31	341	25	6.3107250474184
31	488	26	10.312162813056
31	647	27	6.2100379074277
31	806	28	6.3901172178949
31	965	29	5.2070743395659
31	1120	30	3.5115424148354
31	1279	31	8.1248333571807
31	1450	32	-1.5173062106756
31	1617	33	0.973
31	1784	34	0.973
31	1943	35	0.973
31	2098	36	0.973
31	2245	37	0.973
31	2400	38	0.973
31	2559	39	0.973
31	2726	40	1.1103106968585
31	2897	41	0.973
31	3080	42	0.973
31	3263	43	0.973
31	3438	44	1.9460641053677
31	3605	45	3.3823080720577
31	3768	46	4.5922672956078
31	3927	47	6.4823305443207
31	4086	48	0.973
31	4253	49	0.973
31	4416	50	0.973
31	4583	51	0.973
31	4754	52	0.973
31	4925	53	2.4704995747828
31	5104	54	0.973
31	5287	55	0.973
31	5466	56	0.973
31	5649	57	0.973
31	5828	58	2.4098244311649
31	6007	59	0.973
31	6190	60	0.973
31	6377	61	0.973
31	6564	62	0.973
31	6751	63	2.3719048931367
31	6942	64	0.973
31	7133	65	0.973
31	7324	66	0.973
31	7515	67	0.973
31	7710	68	1.633935511578
31	7905	69	0.973
31	8096	70	0.973
31	8291	71	0.973
31	8490	72	0.973
31	8689	73	1.6399641773442
31	8884	74	0.973
31	9083	75	0.973
31	9286	76	0.973
31	9489	77	0.973
31	9688	78	0.973
31	9891	79	0.973
31	10094	80	1.9610185318728
31	10297	81	1.1978486601474
31	10502	82	0.973
31	10705	83	0.973
31	10888	84	0.973
31	11047	85	0.973
31	11194	86	0.973
31	11337	87	0.973
32	20	19	28.325111409198
32	21	20	29.386239575998
32	22	21	30.297262265602
32	76	22	30.761234494402
32	136	23	32.118278612042
32	202	24	24.118278612042
32	341	25	16.118278612042
32	488	26	8.314817660089
32	647	27	0.63268426001547
32	806	28	0.3959891217352
32	965	29	0.19818939069949
32	1120	30	0.0084748860432549
32	1279	31	0
32	1450	32	0
32	1617	33	0
32	1784	34	1.9064155980595
32	1943	35	4.2909482397954
32	2098	36	6.6693733315333
32	2245	37	7.9208145779558
32	2400	38	3.5561212695931
32	2559	39	0.70720937258727
32	2726	40	0.0023445784114751
32	2897	41	0
32	3080	42	0
32	3263	43	0
32	3438	44	2.0941462842165
32	3605	45	0
32	3768	46	0
32	3927	47	0
32	4086	48	0
32	4253	49	1.7276541350293
32	4416	50	0.084069386490962
32	4583	51	0.080423540629079
32	4754	52	0
32	4925	53	0
32	5104	54	0
32	5287	55	2.0012183411745
32	5466	56	1.3482406144213
32	5649	57	0.44639918131159
32	5828	58	0.114802979039
32	6007	59	0.030875898144892
32	6190	60	0
32	6377	61	0
32	6564	62	0
32	6751	63	1.3899453677004
32	6942	64	1.6827530092147
32	7133	65	0.32950070315738
32	7324	66	0.011255247370929
32	7515	67	0
32	7710	68	0
32	7905	69	0
32	8096	70	2.4728890959523
32	8291	71	0
32	8490	72	0
32	8689	73	0
32	8884	74	0
32	9083	75	1.8800371288671
32	9286	76	4.3389104571543
32	9489	77	2.0006104805978
32	9688	78	0.15587991439241
32	9891	79	0.065672497279292
32	10094	80	0
32	10297	81	0
32	10502	82	0
32	10705	83	2.0720720363897
32	10888	84	0
32	11047	85	0
32	11194	86	0
32	11337	87	0
33	21	20	30.1
33	22	21	30.1
33	76	22	61.770424632737
33	136	23	92.430186887953
33	202	24	123.82194402452
33	341	25	148.91332486398
33	488	26	167.05862354178
33	647	27	177.26582145662
33	806	28	181.05969317544
33	965	29	181.11826383231
33	1120	30	181.11826383231
33	1279	31	181.11826383231
33	1450	32	181.11826383231
33	1617	33	183.05935710914
33	1784	34	186.39828118654
33	1943	35	192.21321376316
33	2098	36	199.81569020032
33	2245	37	205.63221774763
33	2400	38	205.94790922502
33	2559	39	206.16101226091
33	2726	40	206.1709155916
33	2897	41	206.1709155916
33	3080	42	206.1709155916
33	3263	43	206.1709155916
33	3438	44	207.8245636212
33	3605	45	207.8245636212
33	3768	46	207.8245636212
33	3927	47	207.8245636212
33	4086	48	207.8245636212
33	4253	49	209.71752912936
33	4416	50	210.0354900496
33	4583	51	210.22613409073
33	4754	52	210.23332486752
33	4925	53	210.23332486752
33	5104	54	210.23332486752
33	5287	55	210.23332486752
33	5466	56	212.61650054898
33	5649	57	212.61650054898
33	5828	58	212.61650054898
33	6007	59	212.61650054898
33	6190	60	212.61650054898
33	6377	61	214.63930079867
33	6564	62	215.33949076875
33	6751	63	215.42014803046
33	6942	64	215.42014803046
33	7133	65	215.42014803046
33	7324	66	215.42014803046
33	7515	67	216.91181136913
33	7710	68	218.72918037332
33	7905	69	218.89877097753
33	8096	70	218.9702004086
33	8291	71	218.9702004086
33	8490	72	218.9702004086
33	8689	73	218.9702004086
33	8884	74	221.46869094338
33	9083	75	224.57097444586
33	9286	76	225.08428800436
33	9489	77	225.13084981732
33	9688	78	225.13084981732
33	9891	79	225.13084981732
33	10094	80	225.13084981732
33	10297	81	227.10357579021
33	10502	82	230.33327540483
33	10705	83	230.6427459149
33	10888	84	230.71323911535
33	11047	85	230.774328292
33	11194	86	230.774328292
33	11337	87	230.774328292
34	21	20	26.65
34	22	21	26.65
34	76	22	26.65
34	136	23	29.95
34	202	24	29.95
34	341	25	29.95
34	488	26	29.95
34	647	27	29.95
34	806	28	29.95
34	965	29	29.95
34	1120	30	29.95
34	1279	31	29.95
34	1450	32	29.95
34	1617	33	29.95
34	1784	34	29.95
34	1943	35	29.95
34	2098	36	29.95
34	2245	37	29.95
34	2400	38	29.95
34	2559	39	29.95
34	2726	40	29.95
34	2897	41	29.95
34	3080	42	29.95
34	3263	43	29.95
34	3438	44	29.95
34	3605	45	29.95
34	3768	46	29.95
34	3927	47	29.95
34	4086	48	29.95
34	4253	49	29.95
34	4416	50	29.95
34	4583	51	29.95
34	4754	52	29.95
34	4925	53	29.95
34	5104	54	29.95
34	5287	55	29.95
34	5466	56	29.95
34	5649	57	29.95
34	5828	58	29.95
34	6007	59	29.95
34	6190	60	29.95
34	6377	61	29.95
34	6564	62	29.95
34	6751	63	29.95
34	6942	64	29.95
34	7133	65	29.95
34	7324	66	29.95
34	7515	67	29.95
34	7710	68	29.95
34	7905	69	29.95
34	8096	70	29.95
34	8291	71	29.95
34	8490	72	29.95
34	8689	73	29.95
34	8884	74	29.95
34	9083	75	29.95
34	9286	76	29.95
34	9489	77	29.95
34	9688	78	29.95
34	9891	79	29.95
34	10094	80	29.95
34	10297	81	29.95
34	10502	82	29.95
34	10705	83	29.95
34	10888	84	29.95
34	11047	85	29.95
34	11194	86	29.95
34	11337	87	29.95
35	21	20	1.0611281667995
35	22	21	0.91102268960417
35	76	22	0.46397222879992
35	136	23	1.3570441176402
35	202	24	-8
35	341	25	-8
35	488	26	-7.8034609519528
35	647	27	-7.6821334000735
35	806	28	-0.23669513828028
35	965	29	-0.19779973103571
35	1120	30	-0.18971450465624
35	1279	31	-0.0084748860432549
35	1450	32	0
35	1617	33	0
35	1784	34	1.9064155980595
35	1943	35	2.3845326417359
35	2098	36	2.3784250917379
35	2245	37	1.2514412464225
35	2400	38	-4.3646933083627
35	2559	39	-2.8489118970058
35	2726	40	-0.70486479417579
35	2897	41	-0.0023445784114751
35	3080	42	0
35	3263	43	0
35	3438	44	2.0941462842165
35	3605	45	-2.0941462842165
35	3768	46	0
35	3927	47	0
35	4086	48	0
35	4253	49	1.7276541350293
35	4416	50	-1.6435847485383
35	4583	51	-0.0036458458618831
35	4754	52	-0.080423540629079
35	4925	53	0
35	5104	54	0
35	5287	55	2.0012183411745
35	5466	56	-0.65297772675323
35	5649	57	-0.90184143310971
35	5828	58	-0.3315962022726
35	6007	59	-0.083927080894106
[...]
506	15499	340	4.3323912854019
506	15500	341	8.1500475142899
506	15501	342	8.0701871304912
506	15502	343	6.0885177040536
506	15503	344	0.973
506	15504	345	3.3558461921968
506	15505	346	4.520512414883
506	15506	347	11.199694605845
506	15507	348	3.5974962600607
506	15508	349	4.2839913946013
506	15509	350	7.6781599072937
506	15510	351	4.8082214797463
506	15511	352	0.56178015716222
506	15512	353	10.22610077176
506	15513	354	5.6818430230045
506	15514	355	5.457650746362
505	15347	188	0.244415308116
505	15348	189	0.46524292178219
505	15349	190	-0.36741469317349
505	15350	191	0.57609463983681
505	15351	192	-0.10986028180923
505	15352	193	-0.30504233989632
505	15353	194	0.20979282591725
505	15354	195	-0.77655569912167
505	15355	196	0.31538830458885
505	15356	197	0.19103409576928
505	15357	198	-0.29488588770619
505	15358	199	0.24808643560391
505	15359	200	-0.56281613040483
505	15360	201	0.39100235735532
505	15361	202	0.13115531532094
505	15362	203	0.067034505482297
505	15363	204	0.27036512066843
505	15364	205	-1.0033374192426
505	15365	206	0.083045934443362
505	15366	207	1.0470477706986
505	15367	208	-0.65507084509591
505	15368	209	0.27059563493822
505	15369	210	0.0018385308794677
505	15370	211	0.23082343424903
505	15371	212	-0.92380797635997
505	15372	213	0.20595035894075
505	15373	214	0.14470635738689
505	15374	215	-0.022934963926673
505	15375	216	-0.012247437553015
505	15376	217	0.57941259205109
505	15377	218	-0.95131139096338
505	15378	219	0.36637556127971
505	15379	220	0.28520546416985
505	15380	221	-0.58427133888472
505	15381	222	0.54545970750041
505	15382	223	0.48288844351191
505	15383	224	-1.10477244918
505	15384	225	0.55222365102964
505	15385	226	0.43067883991171
505	15386	227	-0.79597856034525
505	15387	228	0.35064915718976
505	15388	229	0.15962351870257
505	15389	230	0.44316909887129
505	15390	231	-1.0332679352723
505	15391	232	0.41615944966907
505	15392	233	-0.17333189782221
505	15393	234	0.75233903015032
505	15394	235	0.014137196703814
505	15395	236	-0.57148445688654
505	15396	237	0.31041957350681
505	15397	238	-0.53067908302182
505	15398	239	-0.23362115724012
505	15399	240	0.4122201440623
505	15400	241	-0.40667703171493
505	15401	242	0.65987456066068
505	15402	243	-0.12708849390037
505	15403	244	0.0022683793213218
505	15404	245	0.52117702987744
505	15405	246	-0.088251626293641
505	15406	247	-0.92682657035766
505	15407	248	0.19967819331214
505	15408	249	-0.32109602965647
505	15409	250	0.53977215196937
505	15410	251	0.51301583444001
505	15411	252	-0.41241640748922
505	15412	253	0.50036974658724
505	15413	254	-1.0639398405328
505	15414	255	0.43692410399672
505	15415	256	0.081018076161854
505	15416	257	-0.13624350831378
505	15417	258	-0.37441113934619
505	15418	259	0.62065332807833
505	15419	260	-0.035950077872258
505	15420	261	-0.69064238196006
505	15421	262	1.0800619740621
505	15422	263	-0.4010512525565
505	15423	264	0.10534812841797
505	15424	265	-0.45120848226361
505	15425	266	0.51462212024489
505	15426	267	-0.83186870411737
505	15427	268	0.58405807532836
505	15428	269	0.088886582525447
505	15429	270	-0.079779949737713
505	15430	271	-0.57701240526512
505	15431	272	0.31877165660262
505	15432	273	0.60658533737296
505	15433	274	-0.060547671164386
505	15434	275	-0.14283938362496
505	15435	276	-0.62982868781546
505	15436	277	-0.069676432176493
505	15437	278	0.18924970034277
505	15438	279	0.81517603772227
505	15439	280	-0.32016151439166
505	15440	281	-0.28525333793368
505	15441	282	-0.054524696897715
505	15442	283	-0.21851113560842
505	15443	284	0.93730062828399
505	15444	285	-0.77091931452742
505	15445	286	0.32234437094303
505	15446	287	0.23670772556216
505	15447	288	0.33464792912127
505	15448	289	-0.012916422274429
505	15449	290	-1.1570304041379
505	15450	291	1.0137905011652
505	15451	292	0.034165078541264
505	15452	293	-0.31533670931822
505	15453	294	-0.54218725912506
505	15454	295	0.043472986726556
505	15455	296	-0.1658296387177
505	15456	297	-0.008481927216053
505	15457	298	0.9167738808901
505	15458	299	0.084887110278942
505	15459	300	-0.6103880237788
505	15460	301	-0.14259692368796
505	15461	302	-0.18290233507287
505	15462	303	-0.018141608452424
505	15463	304	-0.082206996157765
505	15464	305	0.67385845817626
505	15465	306	-0.44058321800549
505	15466	307	0.70776509906864
505	15467	308	-0.92460085841594
505	15468	309	0.081040193908848
505	15469	310	-0.10582303570118
505	15470	311	0.80588091572281
505	15471	312	0.28726390009979
505	15472	313	0.038392246642616
505	15473	314	-0.27063268731581
505	15474	315	-0.14016763801919
505	15475	316	0.25798792223213
505	15476	317	-0.79540729348082
505	15477	318	-0.0032924723927863
505	15478	319	0.38344541011611
505	15479	320	-0.14601762173697
505	15480	321	-0.42108036403079
505	15481	322	0.46313568775076
505	15482	323	-0.39178111794172
505	15483	324	-0.060836919292342
505	15484	325	0.37821496662218
505	15485	326	0.11104218574474
505	15486	327	0.35724809829844
505	15487	328	-0.88570252351929
505	15488	329	0.33963815163588
505	15489	330	0.011501127737574
505	15490	331	-0.077542420476675
505	15491	332	0.67121721396688
505	15492	333	-0.10313402250176
505	15493	334	-0.63539526279783
505	15494	335	0.70467972138431
505	15495	336	-0.27163176884642
505	15496	337	-0.4532128982828
505	15497	338	0.9945366854663
505	15498	339	-1.0514838964446
505	15499	340	-0.058274872135371
505	15500	341	0.4632628231775
505	15501	342	0.42815052845981
505	15502	343	0.14558901282726
505	15503	344	-0.9098833342432
505	15504	345	-0.19610711402493
505	15505	346	-0.027506102924235
505	15506	347	0.87192474020412
505	15507	348	-0.18412450968754
505	15508	349	-0.084402255306486
505	15509	350	0.37413387821289
505	15510	351	-0.024530094233342
505	15511	352	-0.60427860240452
505	15512	353	0.7228008293896
505	15513	354	0.088100872526411
505	15514	355	0.054716030426789
502	15346	187	29.117306349875
502	15347	188	29.361721657991
502	15348	189	29.826964579773
502	15349	190	29.459549886599
502	15350	191	30.035644526436
502	15351	192	29.925784244627
502	15352	193	29.620741904731
502	15353	194	29.830534730648
502	15354	195	29.053979031526
502	15355	196	29.369367336115
502	15356	197	29.560401431884
502	15357	198	29.265515544178
502	15358	199	29.513601979782
502	15359	200	28.950785849377
502	15360	201	29.341788206733
502	15361	202	29.472943522053
502	15362	203	29.539978027536
502	15363	204	29.810343148204
502	15364	205	28.807005728962
502	15365	206	28.890051663405
502	15366	207	29.937099434104
502	15367	208	29.282028589008
502	15368	209	29.552624223946
502	15369	210	29.554462754825
502	15370	211	29.785286189074
502	15371	212	28.861478212714
502	15372	213	29.067428571655
502	15373	214	29.212134929042
502	15374	215	29.189199965115
502	15375	216	29.176952527562
502	15376	217	29.756365119613
502	15377	218	28.80505372865
502	15378	219	29.17142928993
502	15379	220	29.4566347541
502	15380	221	28.872363415215
502	15381	222	29.417823122715
502	15382	223	29.900711566227
502	15383	224	28.795939117047
502	15384	225	29.348162768077
502	15385	226	29.778841607988
502	15386	227	28.982863047643
502	15387	228	29.333512204833
502	15388	229	29.493135723536
502	15389	230	29.936304822407
502	15390	231	28.903036887135
502	15391	232	29.319196336804
502	15392	233	29.145864438981
502	15393	234	29.898203469132
502	15394	235	29.912340665836
502	15395	236	29.340856208949
502	15396	237	29.651275782456
502	15397	238	29.120596699434
502	15398	239	28.886975542194
502	15399	240	29.299195686256
502	15400	241	28.892518654541
502	15401	242	29.552393215202
502	15402	243	29.425304721302
502	15403	244	29.427573100623
502	15404	245	29.9487501305
502	15405	246	29.860498504207
502	15406	247	28.933671933849
502	15407	248	29.133350127161
502	15408	249	28.812254097505
502	15409	250	29.352026249474
502	15410	251	29.865042083914
502	15411	252	29.452625676425
502	15412	253	29.952995423012
502	15413	254	28.889055582479
502	15414	255	29.325979686476
502	15415	256	29.406997762638
502	15416	257	29.270754254324
502	15417	258	28.896343114978
502	15418	259	29.516996443056
502	15419	260	29.481046365184
502	15420	261	28.790403983224
502	15421	262	29.870465957286
502	15422	263	29.469414704729
502	15423	264	29.574762833147
502	15424	265	29.123554350884
502	15425	266	29.638176471129
502	15426	267	28.806307767011
502	15427	268	29.39036584234
502	15428	269	29.479252424865
502	15429	270	29.399472475127
502	15430	271	28.822460069862
502	15431	272	29.141231726465
502	15432	273	29.747817063838
502	15433	274	29.687269392674
502	15434	275	29.544430009049
502	15435	276	28.914601321233
502	15436	277	28.844924889057
502	15437	278	29.034174589399
502	15438	279	29.849350627122
502	15439	280	29.52918911273
502	15440	281	29.243935774796
502	15441	282	29.189411077899
502	15442	283	28.97089994229
502	15443	284	29.908200570574
502	15444	285	29.137281256047
502	15445	286	29.45962562699
502	15446	287	29.696333352552
502	15447	288	30.030981281673
502	15448	289	30.018064859399
502	15449	290	28.861034455261
502	15450	291	29.874824956426
502	15451	292	29.908990034967
502	15452	293	29.593653325649
502	15453	294	29.051466066524
502	15454	295	29.094939053251
502	15455	296	28.929109414533
502	15456	297	28.920627487317
502	15457	298	29.837401368207
502	15458	299	29.922288478486
502	15459	300	29.311900454707
502	15460	301	29.169303531019
502	15461	302	28.986401195946
502	15462	303	28.968259587494
502	15463	304	28.886052591336
502	15464	305	29.559911049512
502	15465	306	29.119327831507
502	15466	307	29.827092930576
502	15467	308	28.90249207216
502	15468	309	28.983532266068
502	15469	310	28.877709230367
502	15470	311	29.68359014609
502	15471	312	29.97085404619
502	15472	313	30.009246292832
502	15473	314	29.738613605517
502	15474	315	29.598445967497
502	15475	316	29.85643388973
502	15476	317	29.061026596249
502	15477	318	29.057734123856
502	15478	319	29.441179533972
502	15479	320	29.295161912235
502	15480	321	28.874081548204
502	15481	322	29.337217235955
502	15482	323	28.945436118013
502	15483	324	28.884599198721
502	15484	325	29.262814165343
502	15485	326	29.373856351088
502	15486	327	29.731104449386
502	15487	328	28.845401925867
502	15488	329	29.185040077503
502	15489	330	29.196541205241
502	15490	331	29.118998784764
502	15491	332	29.790215998731
502	15492	333	29.687081976229
502	15493	334	29.051686713431
502	15494	335	29.756366434815
502	15495	336	29.484734665969
502	15496	337	29.031521767686
502	15497	338	30.026058453153
502	15498	339	28.974574556708
502	15499	340	28.916299684573
502	15500	341	29.37956250775
502	15501	342	29.80771303621
502	15502	343	29.953302049037
502	15503	344	29.043418714794
502	15504	345	28.847311600769
502	15505	346	28.819805497845
502	15506	347	29.691730238049
502	15507	348	29.507605728361
502	15508	349	29.423203473055
502	15509	350	29.797337351268
502	15510	351	29.772807257035
502	15511	352	29.16852865463
502	15512	353	29.89132948402
502	15513	354	29.979430356546
502	15514	355	30.034146386973
499	15345	186	26.65
499	15346	187	26.65
499	15347	188	26.65
499	15348	189	26.65
499	15349	190	26.65
499	15350	191	29.95
499	15351	192	29.95
499	15352	193	29.95
499	15353	194	29.95
499	15354	195	29.95
499	15355	196	29.95
499	15356	197	29.95
499	15357	198	29.95
499	15358	199	29.95
499	15359	200	29.95
499	15360	201	29.95
499	15361	202	29.95
499	15362	203	29.95
499	15363	204	29.95
499	15364	205	29.95
499	15365	206	29.95
499	15366	207	29.95
499	15367	208	29.95
499	15368	209	29.95
499	15369	210	29.95
499	15370	211	29.95
499	15371	212	29.95
499	15372	213	29.95
499	15373	214	29.95
499	15374	215	29.95
499	15375	216	29.95
499	15376	217	29.95
499	15377	218	29.95
499	15378	219	29.95
499	15379	220	29.95
499	15380	221	29.95
499	15381	222	29.95
499	15382	223	29.95
499	15383	224	29.95
499	15384	225	29.95
499	15385	226	29.95
499	15386	227	29.95
499	15387	228	29.95
499	15388	229	29.95
499	15389	230	29.95
499	15390	231	29.95
499	15391	232	29.95
499	15392	233	29.95
499	15393	234	29.95
499	15394	235	29.95
499	15395	236	29.95
499	15396	237	29.95
499	15397	238	29.95
499	15398	239	29.95
499	15399	240	29.95
499	15400	241	29.95
499	15401	242	29.95
499	15402	243	29.95
499	15403	244	29.95
499	15404	245	29.95
499	15405	246	29.95
499	15406	247	29.95
499	15407	248	29.95
499	15408	249	29.95
499	15409	250	29.95
499	15410	251	29.95
499	15411	252	29.95
499	15412	253	29.95
499	15413	254	29.95
499	15414	255	29.95
499	15415	256	29.95
499	15416	257	29.95
499	15417	258	29.95
499	15418	259	29.95
499	15419	260	29.95
499	15420	261	29.95
499	15421	262	29.95
499	15422	263	29.95
499	15423	264	29.95
499	15424	265	29.95
499	15425	266	29.95
499	15426	267	29.95
499	15427	268	29.95
499	15428	269	29.95
499	15429	270	29.95
499	15430	271	29.95
499	15431	272	29.95
499	15432	273	29.95
499	15433	274	29.95
499	15434	275	29.95
499	15435	276	29.95
499	15436	277	29.95
499	15437	278	29.95
499	15438	279	29.95
499	15439	280	29.95
499	15440	281	29.95
499	15441	282	29.95
499	15442	283	29.95
499	15443	284	29.95
499	15444	285	29.95
499	15445	286	29.95
499	15446	287	29.95
499	15447	288	29.95
499	15448	289	29.95
499	15449	290	29.95
499	15450	291	29.95
499	15451	292	29.95
499	15452	293	29.95
499	15453	294	29.95
499	15454	295	29.95
499	15455	296	29.95
499	15456	297	29.95
499	15457	298	29.95
499	15458	299	29.95
499	15459	300	29.95
499	15460	301	29.95
499	15461	302	29.95
499	15462	303	29.95
499	15463	304	29.95
499	15464	305	29.95
499	15465	306	29.95
499	15466	307	29.95
499	15467	308	29.95
499	15468	309	29.95
499	15469	310	29.95
499	15470	311	29.95
499	15471	312	29.95
499	15472	313	29.95
499	15473	314	29.95
499	15474	315	29.95
499	15475	316	29.95
499	15476	317	29.95
499	15477	318	29.95
499	15478	319	29.95
499	15479	320	29.95
499	15480	321	29.95
499	15481	322	29.95
499	15482	323	29.95
499	15483	324	29.95
499	15484	325	29.95
499	15485	326	29.95
499	15486	327	29.95
499	15487	328	29.95
499	15488	329	29.95
499	15489	330	29.95
499	15490	331	29.95
499	15491	332	29.95
499	15492	333	29.95
499	15493	334	29.95
499	15494	335	29.95
499	15495	336	29.95
499	15496	337	29.95
499	15497	338	29.95
499	15498	339	29.95
499	15499	340	29.95
499	15500	341	29.95
499	15501	342	29.95
499	15502	343	29.95
499	15503	344	29.95
499	15504	345	29.95
499	15505	346	29.95
499	15506	347	29.95
499	15507	348	29.95
499	15508	349	29.95
499	15509	350	29.95
499	15510	351	29.95
499	15511	352	29.95
499	15512	353	29.95
499	15513	354	29.95
499	15514	355	29.95
498	15345	186	30.1
498	15346	187	30.1
498	15347	188	59.217306349874
498	15348	189	88.579028007865
498	15349	190	118.40599258764
498	15350	191	147.86554247424
498	15351	192	177.90118700067
498	15352	193	207.8269712453
498	15353	194	237.44771315003
498	15354	195	267.27824788068
498	15355	196	296.3322269122
498	15356	197	325.70159424832
498	15357	198	355.2619956802
498	15358	199	384.52751122438
498	15359	200	414.04111320416
498	15360	201	442.99189905354
498	15361	202	472.33368726027
498	15362	203	501.80663078233
498	15363	204	531.34660880986
498	15364	205	561.15695195807
498	15365	206	589.96395768703
498	15366	207	618.85400935043
498	15367	208	648.79110878454
498	15368	209	678.07313737355
498	15369	210	707.62576159749
498	15370	211	737.18022435232
498	15371	212	766.96551054139
498	15372	213	795.82698875411
498	15373	214	824.89441732576
498	15374	215	854.1065522548
498	15375	216	883.29575221992
498	15376	217	912.47270474748
498	15377	218	942.22906986709
498	15378	219	971.03412359574
498	15379	220	1000.2055528857
498	15380	221	1029.6621876398
498	15381	222	1058.534551055
498	15382	223	1087.9523741777
498	15383	224	1117.8530857439
498	15384	225	1146.649024861
498	15385	226	1175.9971876291
498	15386	227	1205.776029237
498	15387	228	1234.7588922847
498	15388	229	1264.0924044895
498	15389	230	1293.5855402131
498	15390	231	1323.5218450355
498	15391	232	1352.4248819226
498	15392	233	1381.7440782594
498	15393	234	1410.8899426984
498	15394	235	1440.7881461675
498	15395	236	1470.7004868333
498	15396	237	1500.0413430423
498	15397	238	1529.6926188248
498	15398	239	1558.8132155242
498	15399	240	1587.7001910664
498	15400	241	1616.9993867526
498	15401	242	1645.8919054072
498	15402	243	1675.4442986224
498	15403	244	1704.8696033437
498	15404	245	1734.2971764443
498	15405	246	1764.2459265748
498	15406	247	1794.106425079
498	15407	248	1823.0400970129
498	15408	249	1852.17344714
498	15409	250	1880.9857012375
498	15410	251	1910.337727487
498	15411	252	1940.2027695709
498	15412	253	1969.6553952473
498	15413	254	1999.6083906703
498	15414	255	2028.4974462528
498	15415	256	2057.8234259393
498	15416	257	2087.2304237019
498	15417	258	2116.5011779563
498	15418	259	2145.3975210712
498	15419	260	2174.9145175143
498	15420	261	2204.3955638795
498	15421	262	2233.1859678627
498	15422	263	2263.05643382
498	15423	264	2292.5258485247
498	15424	265	2322.1006113579
498	15425	266	2351.2241657088
498	15426	267	2380.8623421799
498	15427	268	2409.6686499469
498	15428	269	2439.0590157892
498	15429	270	2468.5382682141
498	15430	271	2497.9377406892
498	15431	272	2526.7602007591
498	15432	273	2555.9014324856
498	15433	274	2585.6492495494
498	15434	275	2615.3365189421
498	15435	276	2644.8809489511
498	15436	277	2673.7955502723
498	15437	278	2702.6404751614
498	15438	279	2731.6746497508
498	15439	280	2761.5240003779
498	15440	281	2791.0531894907
498	15441	282	2820.2971252654
498	15442	283	2849.4865363433
498	15443	284	2878.4574362856
498	15444	285	2908.3656368562
498	15445	286	2937.5029181123
498	15446	287	2966.9625437392
498	15447	288	2996.6588770918
498	15448	289	3026.6898583735
498	15449	290	3056.7079232329
498	15450	291	3085.5689576881
498	15451	292	3115.4437826446
498	15452	293	3145.3527726795
498	15453	294	3174.9464260052
498	15454	295	3203.9978920717
498	15455	296	3233.0928311249
498	15456	297	3262.0219405395
498	15457	298	3290.9425680268
498	15458	299	3320.779969395
498	15459	300	3350.7022578735
498	15460	301	3380.0141583282
498	15461	302	3409.1834618592
498	15462	303	3438.1698630552
498	15463	304	3467.1381226427
498	15464	305	3496.024175234
498	15465	306	3525.5840862835
498	15466	307	3554.703414115
498	15467	308	3584.5305070456
498	15468	309	3613.4329991177
498	15469	310	3642.4165313838
498	15470	311	3671.2942406142
498	15471	312	3700.9778307603
498	15472	313	3730.9486848065
498	15473	314	3760.9579310993
498	15474	315	3790.6965447048
498	15475	316	3820.2949906723
498	15476	317	3850.151424562
498	15477	318	3879.2124511583
498	15478	319	3908.2701852821
498	15479	320	3937.7113648161
498	15480	321	3967.0065267283
498	15481	322	3995.8806082766
498	15482	323	4025.2178255125
498	15483	324	4054.1632616305
498	15484	325	4083.0478608292
498	15485	326	4112.3106749946
498	15486	327	4141.6845313457
498	15487	328	4171.4156357951
498	15488	329	4200.2610377209
498	15489	330	4229.4460777984
498	15490	331	4258.6426190037
498	15491	332	4287.7616177884
498	15492	333	4317.5518337872
498	15493	334	4347.2389157634
498	15494	335	4376.2906024768
498	15495	336	4406.0469689116
498	15496	337	4435.5317035776
498	15497	338	4464.5632253453
498	15498	339	4494.5892837984
498	15499	340	4523.5638583552
498	15500	341	4552.4801580397
498	15501	342	4581.8597205475
498	15502	343	4611.6674335837
498	15503	344	4641.6207356327
498	15504	345	4670.6641543475
498	15505	346	4699.5114659483
498	15506	347	4728.3312714461
498	15507	348	4758.0230016842
498	15508	349	4787.5306074125
498	15509	350	4816.9538108856
498	15510	351	4846.7511482369
498	15511	352	4876.5239554939
498	15512	353	4905.6924841485
498	15513	354	4935.5838136326
498	15514	355	4965.5632439891

