version 2
run Scenario1Patched-0-20180428-21:00:24-2236
attr configname Scenario1Patched
attr datetime 20180428-21:00:24
attr experiment Scenario1Patched
attr inifile omnetpp.ini
attr iterationvars ""
attr iterationvarsf ""
attr measurement ""
attr network HighwayScenario1
attr processid 2236
attr repetition 0
attr replication #0
attr resultdir results
attr runnumber 0
attr seedset 0
param *.ambulanceNode[*].applType "\"AmbulanceAppLayer_Secure\""
param *.ambulanceNode[*].appl.messageLength 158
param *.ambulanceNode[*].appl.messageValidity 300
param *.attackerNode[*].applType "\"AttackerAppLayer\""
param *.node[*].applType "\"NormalAppLayer_Secure\""
param *.node[*].appl.headerLength "80 bit"
param *.node[*].appl.sendBeacons false
param *.node[*].appl.dataOnSch false
param **.debug false
param **.coreDebug false
param *.playgroundSizeX 5500m
param *.playgroundSizeY 500m
param *.playgroundSizeZ 50m
param *.annotations.draw false
param *.obstacles.debug false
param *.manager.updateInterval 1s
param *.manager.host "\"localhost\""
param *.manager.port 9999
param *.manager.autoShutdown true
param *.manager.launchConfig "xmldoc(\"highway.launchd.xml\")"
param *.connectionManager.sendDirect true
param *.connectionManager.maxInterfDist 2600m
param *.connectionManager.drawMaxIntfDist false
param *.**.nic.mac1609_4.useServiceChannel false
param *.**.nic.mac1609_4.txPower 20mW
param *.**.nic.mac1609_4.bitrate 6Mbps
param *.**.nic.phy80211p.sensitivity -89dBm
param *.**.nic.phy80211p.useThermalNoise true
param *.**.nic.phy80211p.thermalNoise -110dBm
param *.**.nic.phy80211p.decider "xmldoc(\"config.xml\")"
param *.**.nic.phy80211p.analogueModels "xmldoc(\"config.xml\")"
param *.**.nic.phy80211p.usePropagationDelay true
param *.**.nic.phy80211p.antenna "xmldoc(\"antenna.xml\", \"/root/Antenna[@id='monopole']\")"
param *.manager.moduleType "\"ambulance=org.car2x.veins.nodes.Car attacker=org.car2x.veins.nodes.Car *=org.car2x.veins.nodes.Car\""
param *.manager.moduleName "\"ambulance=ambulanceNode attacker=attackerNode *=node\""
param *.node[*].veinsmobilityType.debug true
param *.node[*].veinsmobility.x 0
param *.node[*].veinsmobility.y 0
param *.node[*].veinsmobility.z 1.895
param *.ambulanceNode[*].veinsmobilityType.debug true
param *.ambulanceNode[*].veinsmobility.x 0
param *.ambulanceNode[*].veinsmobility.y 0
param *.ambulanceNode[*].veinsmobility.z 1.895
param *.attackerNode[*].veinsmobilityType.debug true
param *.attackerNode[*].veinsmobility.x 0
param *.attackerNode[*].veinsmobility.y 0
param *.attackerNode[*].veinsmobility.z 1.895

scalar HighwayScenario1.ambulanceNode[8].appl generatedWSMs 109
scalar HighwayScenario1.ambulanceNode[8].appl receivedWSMs 10
scalar HighwayScenario1.ambulanceNode[8].appl generatedBSMs 0
scalar HighwayScenario1.ambulanceNode[8].appl receivedBSMs 1
scalar HighwayScenario1.ambulanceNode[8].appl generatedWSAs 0
scalar HighwayScenario1.ambulanceNode[8].appl receivedWSAs 0
scalar HighwayScenario1.ambulanceNode[8].nic.phy80211p busyTime 2.4440366972477e-005
scalar HighwayScenario1.ambulanceNode[8].nic.mac1609_4 ReceivedUnicastPackets 0
scalar HighwayScenario1.ambulanceNode[8].nic.mac1609_4 ReceivedBroadcasts 11
scalar HighwayScenario1.ambulanceNode[8].nic.mac1609_4 SentPackets 109
scalar HighwayScenario1.ambulanceNode[8].nic.mac1609_4 SNIRLostPackets 0
scalar HighwayScenario1.ambulanceNode[8].nic.mac1609_4 RXTXLostPackets 0
scalar HighwayScenario1.ambulanceNode[8].nic.mac1609_4 TotalLostPackets 0
scalar HighwayScenario1.ambulanceNode[8].nic.mac1609_4 DroppedPacketsInMac 0
scalar HighwayScenario1.ambulanceNode[8].nic.mac1609_4 TooLittleTime 0
scalar HighwayScenario1.ambulanceNode[8].nic.mac1609_4 TimesIntoBackoff 109
scalar HighwayScenario1.ambulanceNode[8].nic.mac1609_4 SlotsBackoff 150
scalar HighwayScenario1.ambulanceNode[8].nic.mac1609_4 NumInternalContention 0
scalar HighwayScenario1.ambulanceNode[8].nic.mac1609_4 totalBusyTime 0.030677
scalar HighwayScenario1.ambulanceNode[8].veinsmobility startTime 21
scalar HighwayScenario1.ambulanceNode[8].veinsmobility totalTime 108
scalar HighwayScenario1.ambulanceNode[8].veinsmobility stopTime 130
scalar HighwayScenario1.ambulanceNode[8].veinsmobility minSpeed 26.272369076207
scalar HighwayScenario1.ambulanceNode[8].veinsmobility maxSpeed 49.938501358032
scalar HighwayScenario1.ambulanceNode[8].veinsmobility totalDistance 4983.4980837583
scalar HighwayScenario1.ambulanceNode[8].veinsmobility totalCO2Emission 1720.5209215907
scalar HighwayScenario1.node[13].appl generatedWSMs 0
scalar HighwayScenario1.node[13].appl receivedWSMs 52
scalar HighwayScenario1.node[13].appl generatedBSMs 0
scalar HighwayScenario1.node[13].appl receivedBSMs 0
scalar HighwayScenario1.node[13].appl generatedWSAs 0
scalar HighwayScenario1.node[13].appl receivedWSAs 0
scalar HighwayScenario1.node[13].appl delayBSM_P1 0
scalar HighwayScenario1.node[13].appl delayBSM_P2 5.6357216576923e-005
scalar HighwayScenario1.node[13].nic.phy80211p busyTime 8.1668711656442e-005
scalar HighwayScenario1.node[13].nic.mac1609_4 ReceivedUnicastPackets 0
scalar HighwayScenario1.node[13].nic.mac1609_4 ReceivedBroadcasts 52
scalar HighwayScenario1.node[13].nic.mac1609_4 SentPackets 0
scalar HighwayScenario1.node[13].nic.mac1609_4 SNIRLostPackets 0
scalar HighwayScenario1.node[13].nic.mac1609_4 RXTXLostPackets 0
scalar HighwayScenario1.node[13].nic.mac1609_4 TotalLostPackets 0
scalar HighwayScenario1.node[13].nic.mac1609_4 DroppedPacketsInMac 0
scalar HighwayScenario1.node[13].nic.mac1609_4 TooLittleTime 0
scalar HighwayScenario1.node[13].nic.mac1609_4 TimesIntoBackoff 0
scalar HighwayScenario1.node[13].nic.mac1609_4 SlotsBackoff 0
scalar HighwayScenario1.node[13].nic.mac1609_4 NumInternalContention 0
scalar HighwayScenario1.node[13].nic.mac1609_4 totalBusyTime 0.013312
scalar HighwayScenario1.node[13].veinsmobility startTime 26
scalar HighwayScenario1.node[13].veinsmobility totalTime 162
scalar HighwayScenario1.node[13].veinsmobility stopTime 189
scalar HighwayScenario1.node[13].veinsmobility minSpeed 6.9711597384218
scalar HighwayScenario1.node[13].veinsmobility maxSpeed 34.611564578224
scalar HighwayScenario1.node[13].veinsmobility totalDistance 4984.6327384936
scalar HighwayScenario1.node[13].veinsmobility totalCO2Emission 1087.1955987804
scalar HighwayScenario1.node[17].appl generatedWSMs 0
scalar HighwayScenario1.node[17].appl receivedWSMs 32
scalar HighwayScenario1.node[17].appl generatedBSMs 0
scalar HighwayScenario1.node[17].appl receivedBSMs 0
scalar HighwayScenario1.node[17].appl generatedWSAs 0
scalar HighwayScenario1.node[17].appl receivedWSAs 0
scalar HighwayScenario1.node[17].appl delayBSM_P1 0
scalar HighwayScenario1.node[17].appl delayBSM_P2 0
scalar HighwayScenario1.node[17].nic.phy80211p busyTime 5.2512820512821e-005
scalar HighwayScenario1.node[17].nic.mac1609_4 ReceivedUnicastPackets 0
scalar HighwayScenario1.node[17].nic.mac1609_4 ReceivedBroadcasts 32
scalar HighwayScenario1.node[17].nic.mac1609_4 SentPackets 0
scalar HighwayScenario1.node[17].nic.mac1609_4 SNIRLostPackets 0
scalar HighwayScenario1.node[17].nic.mac1609_4 RXTXLostPackets 0
scalar HighwayScenario1.node[17].nic.mac1609_4 TotalLostPackets 0
scalar HighwayScenario1.node[17].nic.mac1609_4 DroppedPacketsInMac 0
scalar HighwayScenario1.node[17].nic.mac1609_4 TooLittleTime 0
scalar HighwayScenario1.node[17].nic.mac1609_4 TimesIntoBackoff 0
scalar HighwayScenario1.node[17].nic.mac1609_4 SlotsBackoff 0
scalar HighwayScenario1.node[17].nic.mac1609_4 NumInternalContention 0
scalar HighwayScenario1.node[17].nic.mac1609_4 totalBusyTime 0.008192
scalar HighwayScenario1.node[17].veinsmobility startTime 39
scalar HighwayScenario1.node[17].veinsmobility totalTime 155
scalar HighwayScenario1.node[17].veinsmobility stopTime 195
scalar HighwayScenario1.node[17].veinsmobility minSpeed 19.310721093169
scalar HighwayScenario1.node[17].veinsmobility maxSpeed 35.765690080512
scalar HighwayScenario1.node[17].veinsmobility totalDistance 4966.5624432782
scalar HighwayScenario1.node[17].veinsmobility totalCO2Emission 1053.9012869736
scalar HighwayScenario1.node[19].appl generatedWSMs 0
scalar HighwayScenario1.node[19].appl receivedWSMs 34
scalar HighwayScenario1.node[19].appl generatedBSMs 0
scalar HighwayScenario1.node[19].appl receivedBSMs 0
scalar HighwayScenario1.node[19].appl generatedWSAs 0
scalar HighwayScenario1.node[19].appl receivedWSAs 0
scalar HighwayScenario1.node[19].appl delayBSM_P1 0
scalar HighwayScenario1.node[19].appl delayBSM_P2 0
scalar HighwayScenario1.node[19].nic.phy80211p busyTime 5.5794871794872e-005
scalar HighwayScenario1.node[19].nic.mac1609_4 ReceivedUnicastPackets 0
scalar HighwayScenario1.node[19].nic.mac1609_4 ReceivedBroadcasts 34
scalar HighwayScenario1.node[19].nic.mac1609_4 SentPackets 0
scalar HighwayScenario1.node[19].nic.mac1609_4 SNIRLostPackets 0
scalar HighwayScenario1.node[19].nic.mac1609_4 RXTXLostPackets 0
scalar HighwayScenario1.node[19].nic.mac1609_4 TotalLostPackets 0
scalar HighwayScenario1.node[19].nic.mac1609_4 DroppedPacketsInMac 0
scalar HighwayScenario1.node[19].nic.mac1609_4 TooLittleTime 0
scalar HighwayScenario1.node[19].nic.mac1609_4 TimesIntoBackoff 0
scalar HighwayScenario1.node[19].nic.mac1609_4 SlotsBackoff 0
scalar HighwayScenario1.node[19].nic.mac1609_4 NumInternalContention 0
scalar HighwayScenario1.node[19].nic.mac1609_4 totalBusyTime 0.008704
scalar HighwayScenario1.node[19].veinsmobility startTime 41
scalar HighwayScenario1.node[19].veinsmobility totalTime 155
scalar HighwayScenario1.node[19].veinsmobility stopTime 197
scalar HighwayScenario1.node[19].veinsmobility minSpeed 16.799481419044
scalar HighwayScenario1.node[19].veinsmobility maxSpeed 34.990257617676
scalar HighwayScenario1.node[19].veinsmobility totalDistance 4974.4054757168
scalar HighwayScenario1.node[19].veinsmobility totalCO2Emission 1125.0920428737
scalar HighwayScenario1.node[14].appl generatedWSMs 0
scalar HighwayScenario1.node[14].appl receivedWSMs 41
scalar HighwayScenario1.node[14].appl generatedBSMs 0
scalar HighwayScenario1.node[14].appl receivedBSMs 0
scalar HighwayScenario1.node[14].appl generatedWSAs 0
scalar HighwayScenario1.node[14].appl receivedWSAs 0
scalar HighwayScenario1.node[14].appl delayBSM_P1 0
scalar HighwayScenario1.node[14].appl delayBSM_P2 2.6048844268293e-005
scalar HighwayScenario1.node[14].nic.phy80211p busyTime 6.3228915662651e-005
scalar HighwayScenario1.node[14].nic.mac1609_4 ReceivedUnicastPackets 0
scalar HighwayScenario1.node[14].nic.mac1609_4 ReceivedBroadcasts 41
scalar HighwayScenario1.node[14].nic.mac1609_4 SentPackets 0
scalar HighwayScenario1.node[14].nic.mac1609_4 SNIRLostPackets 0
scalar HighwayScenario1.node[14].nic.mac1609_4 RXTXLostPackets 0
scalar HighwayScenario1.node[14].nic.mac1609_4 TotalLostPackets 0
scalar HighwayScenario1.node[14].nic.mac1609_4 DroppedPacketsInMac 0
scalar HighwayScenario1.node[14].nic.mac1609_4 TooLittleTime 0
scalar HighwayScenario1.node[14].nic.mac1609_4 TimesIntoBackoff 0
scalar HighwayScenario1.node[14].nic.mac1609_4 SlotsBackoff 0
scalar HighwayScenario1.node[14].nic.mac1609_4 NumInternalContention 0
scalar HighwayScenario1.node[14].nic.mac1609_4 totalBusyTime 0.010496
scalar HighwayScenario1.node[14].veinsmobility startTime 31
scalar HighwayScenario1.node[14].veinsmobility totalTime 165
scalar HighwayScenario1.node[14].veinsmobility stopTime 197
scalar HighwayScenario1.node[14].veinsmobility minSpeed 15.244564830487
scalar HighwayScenario1.node[14].veinsmobility maxSpeed 32.120590758966
scalar HighwayScenario1.node[14].veinsmobility totalDistance 4980.6303356273
scalar HighwayScenario1.node[14].veinsmobility totalCO2Emission 1002.6065432793
scalar HighwayScenario1.node[12].appl generatedWSMs 0
scalar HighwayScenario1.node[12].appl receivedWSMs 56
scalar HighwayScenario1.node[12].appl generatedBSMs 0
scalar HighwayScenario1.node[12].appl receivedBSMs 0
scalar HighwayScenario1.node[12].appl generatedWSAs 0
scalar HighwayScenario1.node[12].appl receivedWSAs 0
scalar HighwayScenario1.node[12].appl delayBSM_P1 0
scalar HighwayScenario1.node[12].appl delayBSM_P2 7.1082113178571e-005
scalar HighwayScenario1.node[12].nic.phy80211p busyTime 8.2390804597701e-005
scalar HighwayScenario1.node[12].nic.mac1609_4 ReceivedUnicastPackets 0
scalar HighwayScenario1.node[12].nic.mac1609_4 ReceivedBroadcasts 56
scalar HighwayScenario1.node[12].nic.mac1609_4 SentPackets 0
scalar HighwayScenario1.node[12].nic.mac1609_4 SNIRLostPackets 0
scalar HighwayScenario1.node[12].nic.mac1609_4 RXTXLostPackets 0
scalar HighwayScenario1.node[12].nic.mac1609_4 TotalLostPackets 0
scalar HighwayScenario1.node[12].nic.mac1609_4 DroppedPacketsInMac 0
scalar HighwayScenario1.node[12].nic.mac1609_4 TooLittleTime 0
scalar HighwayScenario1.node[12].nic.mac1609_4 TimesIntoBackoff 0
scalar HighwayScenario1.node[12].nic.mac1609_4 SlotsBackoff 0
scalar HighwayScenario1.node[12].nic.mac1609_4 NumInternalContention 0
scalar HighwayScenario1.node[12].nic.mac1609_4 totalBusyTime 0.014336
scalar HighwayScenario1.node[12].veinsmobility startTime 25
scalar HighwayScenario1.node[12].veinsmobility totalTime 173
scalar HighwayScenario1.node[12].veinsmobility stopTime 199
scalar HighwayScenario1.node[12].veinsmobility minSpeed 7.298513280055
scalar HighwayScenario1.node[12].veinsmobility maxSpeed 30.668852328125
scalar HighwayScenario1.node[12].veinsmobility totalDistance 4966.4747348254
scalar HighwayScenario1.node[12].veinsmobility totalCO2Emission 959.44378327259
scalar HighwayScenario1.node[21].appl generatedWSMs 0
scalar HighwayScenario1.node[21].appl receivedWSMs 33
scalar HighwayScenario1.node[21].appl generatedBSMs 0
scalar HighwayScenario1.node[21].appl receivedBSMs 0
scalar HighwayScenario1.node[21].appl generatedWSAs 0
scalar HighwayScenario1.node[21].appl receivedWSAs 0
scalar HighwayScenario1.node[21].appl delayBSM_P1 0
scalar HighwayScenario1.node[21].appl delayBSM_P2 0
scalar HighwayScenario1.node[21].nic.phy80211p busyTime 5.3808917197452e-005
scalar HighwayScenario1.node[21].nic.mac1609_4 ReceivedUnicastPackets 0
scalar HighwayScenario1.node[21].nic.mac1609_4 ReceivedBroadcasts 33
scalar HighwayScenario1.node[21].nic.mac1609_4 SentPackets 0
scalar HighwayScenario1.node[21].nic.mac1609_4 SNIRLostPackets 0
scalar HighwayScenario1.node[21].nic.mac1609_4 RXTXLostPackets 0
scalar HighwayScenario1.node[21].nic.mac1609_4 TotalLostPackets 0
scalar HighwayScenario1.node[21].nic.mac1609_4 DroppedPacketsInMac 0
scalar HighwayScenario1.node[21].nic.mac1609_4 TooLittleTime 0
scalar HighwayScenario1.node[21].nic.mac1609_4 TimesIntoBackoff 0
scalar HighwayScenario1.node[21].nic.mac1609_4 SlotsBackoff 0
scalar HighwayScenario1.node[21].nic.mac1609_4 NumInternalContention 0
scalar HighwayScenario1.node[21].nic.mac1609_4 totalBusyTime 0.008448
scalar HighwayScenario1.node[21].veinsmobility startTime 43
scalar HighwayScenario1.node[21].veinsmobility totalTime 156
scalar HighwayScenario1.node[21].veinsmobility stopTime 200
scalar HighwayScenario1.node[21].veinsmobility minSpeed 18.593384859665
scalar HighwayScenario1.node[21].veinsmobility maxSpeed 33.495188973471
scalar HighwayScenario1.node[21].veinsmobility totalDistance 4987.0134191143
scalar HighwayScenario1.node[21].veinsmobility totalCO2Emission 1029.1852193212
scalar HighwayScenario1.node[18].appl generatedWSMs 0
scalar HighwayScenario1.node[18].appl receivedWSMs 33
scalar HighwayScenario1.node[18].appl generatedBSMs 0
scalar HighwayScenario1.node[18].appl receivedBSMs 0
scalar HighwayScenario1.node[18].appl generatedWSAs 0
scalar HighwayScenario1.node[18].appl receivedWSAs 0
scalar HighwayScenario1.node[18].appl delayBSM_P1 0
scalar HighwayScenario1.node[18].appl delayBSM_P2 0
scalar HighwayScenario1.node[18].nic.phy80211p busyTime 5.2472049689441e-005
scalar HighwayScenario1.node[18].nic.mac1609_4 ReceivedUnicastPackets 0
scalar HighwayScenario1.node[18].nic.mac1609_4 ReceivedBroadcasts 33
scalar HighwayScenario1.node[18].nic.mac1609_4 SentPackets 0
scalar HighwayScenario1.node[18].nic.mac1609_4 SNIRLostPackets 0
scalar HighwayScenario1.node[18].nic.mac1609_4 RXTXLostPackets 0
scalar HighwayScenario1.node[18].nic.mac1609_4 TotalLostPackets 0
scalar HighwayScenario1.node[18].nic.mac1609_4 DroppedPacketsInMac 0
scalar HighwayScenario1.node[18].nic.mac1609_4 TooLittleTime 0
scalar HighwayScenario1.node[18].nic.mac1609_4 TimesIntoBackoff 0
scalar HighwayScenario1.node[18].nic.mac1609_4 SlotsBackoff 0
scalar HighwayScenario1.node[18].nic.mac1609_4 NumInternalContention 0
scalar HighwayScenario1.node[18].nic.mac1609_4 totalBusyTime 0.008448
scalar HighwayScenario1.node[18].veinsmobility startTime 40
scalar HighwayScenario1.node[18].veinsmobility totalTime 160
scalar HighwayScenario1.node[18].veinsmobility stopTime 201
scalar HighwayScenario1.node[18].veinsmobility minSpeed 18.433966395362
scalar HighwayScenario1.node[18].veinsmobility maxSpeed 34.460218281911
scalar HighwayScenario1.node[18].veinsmobility totalDistance 4987.4990521138
scalar HighwayScenario1.node[18].veinsmobility totalCO2Emission 1299.1900532184
scalar HighwayScenario1.node[15].appl generatedWSMs 0
scalar HighwayScenario1.node[15].appl receivedWSMs 58
scalar HighwayScenario1.node[15].appl generatedBSMs 0
scalar HighwayScenario1.node[15].appl receivedBSMs 0
scalar HighwayScenario1.node[15].appl generatedWSAs 0
scalar HighwayScenario1.node[15].appl receivedWSAs 0
scalar HighwayScenario1.node[15].appl delayBSM_P1 0
scalar HighwayScenario1.node[15].appl delayBSM_P2 0
scalar HighwayScenario1.node[15].nic.phy80211p busyTime 8.5826589595376e-005
scalar HighwayScenario1.node[15].nic.mac1609_4 ReceivedUnicastPackets 0
scalar HighwayScenario1.node[15].nic.mac1609_4 ReceivedBroadcasts 58
scalar HighwayScenario1.node[15].nic.mac1609_4 SentPackets 0
scalar HighwayScenario1.node[15].nic.mac1609_4 SNIRLostPackets 0
scalar HighwayScenario1.node[15].nic.mac1609_4 RXTXLostPackets 0
scalar HighwayScenario1.node[15].nic.mac1609_4 TotalLostPackets 0
scalar HighwayScenario1.node[15].nic.mac1609_4 DroppedPacketsInMac 0
scalar HighwayScenario1.node[15].nic.mac1609_4 TooLittleTime 0
scalar HighwayScenario1.node[15].nic.mac1609_4 TimesIntoBackoff 0
scalar HighwayScenario1.node[15].nic.mac1609_4 SlotsBackoff 0
scalar HighwayScenario1.node[15].nic.mac1609_4 NumInternalContention 0
scalar HighwayScenario1.node[15].nic.mac1609_4 totalBusyTime 0.014848
scalar HighwayScenario1.node[15].veinsmobility startTime 37
scalar HighwayScenario1.node[15].veinsmobility totalTime 172
scalar HighwayScenario1.node[15].veinsmobility stopTime 210
scalar HighwayScenario1.node[15].veinsmobility minSpeed 0.028618813325179
scalar HighwayScenario1.node[15].veinsmobility maxSpeed 32.027024232681
scalar HighwayScenario1.node[15].veinsmobility totalDistance 4968.5221096942
scalar HighwayScenario1.node[15].veinsmobility totalCO2Emission 1048.6797969476
scalar HighwayScenario1.node[27].appl generatedWSMs 0
scalar HighwayScenario1.node[27].appl receivedWSMs 48
scalar HighwayScenario1.node[27].appl generatedBSMs 0
scalar HighwayScenario1.node[27].appl receivedBSMs 0
scalar HighwayScenario1.node[27].appl generatedWSAs 0
scalar HighwayScenario1.node[27].appl receivedWSAs 0
scalar HighwayScenario1.node[27].appl delayBSM_P1 0
scalar HighwayScenario1.node[27].appl delayBSM_P2 0
scalar HighwayScenario1.node[27].nic.phy80211p busyTime 7.68e-005
scalar HighwayScenario1.node[27].nic.mac1609_4 ReceivedUnicastPackets 0
scalar HighwayScenario1.node[27].nic.mac1609_4 ReceivedBroadcasts 48
scalar HighwayScenario1.node[27].nic.mac1609_4 SentPackets 0
scalar HighwayScenario1.node[27].nic.mac1609_4 SNIRLostPackets 0
scalar HighwayScenario1.node[27].nic.mac1609_4 RXTXLostPackets 0
scalar HighwayScenario1.node[27].nic.mac1609_4 TotalLostPackets 0
scalar HighwayScenario1.node[27].nic.mac1609_4 DroppedPacketsInMac 0
scalar HighwayScenario1.node[27].nic.mac1609_4 TooLittleTime 0
scalar HighwayScenario1.node[27].nic.mac1609_4 TimesIntoBackoff 0
scalar HighwayScenario1.node[27].nic.mac1609_4 SlotsBackoff 0
scalar HighwayScenario1.node[27].nic.mac1609_4 NumInternalContention 0
scalar HighwayScenario1.node[27].nic.mac1609_4 totalBusyTime 0.012288
scalar HighwayScenario1.node[27].veinsmobility startTime 52
scalar HighwayScenario1.node[27].veinsmobility totalTime 159
scalar HighwayScenario1.node[27].veinsmobility stopTime 212
scalar HighwayScenario1.node[27].veinsmobility minSpeed 21.037695269544
scalar HighwayScenario1.node[27].veinsmobility maxSpeed 32.731768780672
scalar HighwayScenario1.node[27].veinsmobility totalDistance 4990.0363047946
scalar HighwayScenario1.node[27].veinsmobility totalCO2Emission 977.62605445714
scalar HighwayScenario1.node[24].appl generatedWSMs 0
scalar HighwayScenario1.node[24].appl receivedWSMs 51
scalar HighwayScenario1.node[24].appl generatedBSMs 0
scalar HighwayScenario1.node[24].appl receivedBSMs 0
scalar HighwayScenario1.node[24].appl generatedWSAs 0
scalar HighwayScenario1.node[24].appl receivedWSAs 0
scalar HighwayScenario1.node[24].appl delayBSM_P1 0
scalar HighwayScenario1.node[24].appl delayBSM_P2 0
scalar HighwayScenario1.node[24].nic.phy80211p busyTime 7.9127272727273e-005
scalar HighwayScenario1.node[24].nic.mac1609_4 ReceivedUnicastPackets 0
scalar HighwayScenario1.node[24].nic.mac1609_4 ReceivedBroadcasts 51
scalar HighwayScenario1.node[24].nic.mac1609_4 SentPackets 0
scalar HighwayScenario1.node[24].nic.mac1609_4 SNIRLostPackets 0
scalar HighwayScenario1.node[24].nic.mac1609_4 RXTXLostPackets 0
scalar HighwayScenario1.node[24].nic.mac1609_4 TotalLostPackets 0
scalar HighwayScenario1.node[24].nic.mac1609_4 DroppedPacketsInMac 0
scalar HighwayScenario1.node[24].nic.mac1609_4 TooLittleTime 0
scalar HighwayScenario1.node[24].nic.mac1609_4 TimesIntoBackoff 0
scalar HighwayScenario1.node[24].nic.mac1609_4 SlotsBackoff 0
scalar HighwayScenario1.node[24].nic.mac1609_4 NumInternalContention 0
scalar HighwayScenario1.node[24].nic.mac1609_4 totalBusyTime 0.013056
scalar HighwayScenario1.node[24].veinsmobility startTime 47
scalar HighwayScenario1.node[24].veinsmobility totalTime 164
scalar HighwayScenario1.node[24].veinsmobility stopTime 212
scalar HighwayScenario1.node[24].veinsmobility minSpeed 15.89076017762
scalar HighwayScenario1.node[24].veinsmobility maxSpeed 32.319730262809
scalar HighwayScenario1.node[24].veinsmobility totalDistance 4986.9484263896
scalar HighwayScenario1.node[24].veinsmobility totalCO2Emission 1006.0924857363
scalar HighwayScenario1.node[28].appl generatedWSMs 0
scalar HighwayScenario1.node[28].appl receivedWSMs 48
scalar HighwayScenario1.node[28].appl generatedBSMs 0
scalar HighwayScenario1.node[28].appl receivedBSMs 0
scalar HighwayScenario1.node[28].appl generatedWSAs 0
scalar HighwayScenario1.node[28].appl receivedWSAs 0
scalar HighwayScenario1.node[28].appl delayBSM_P1 0
scalar HighwayScenario1.node[28].appl delayBSM_P2 0
scalar HighwayScenario1.node[28].nic.phy80211p busyTime 7.68e-005
scalar HighwayScenario1.node[28].nic.mac1609_4 ReceivedUnicastPackets 0
scalar HighwayScenario1.node[28].nic.mac1609_4 ReceivedBroadcasts 48
scalar HighwayScenario1.node[28].nic.mac1609_4 SentPackets 0
scalar HighwayScenario1.node[28].nic.mac1609_4 SNIRLostPackets 0
scalar HighwayScenario1.node[28].nic.mac1609_4 RXTXLostPackets 0
scalar HighwayScenario1.node[28].nic.mac1609_4 TotalLostPackets 0
scalar HighwayScenario1.node[28].nic.mac1609_4 DroppedPacketsInMac 0
scalar HighwayScenario1.node[28].nic.mac1609_4 TooLittleTime 0
scalar HighwayScenario1.node[28].nic.mac1609_4 TimesIntoBackoff 0
scalar HighwayScenario1.node[28].nic.mac1609_4 SlotsBackoff 0
scalar HighwayScenario1.node[28].nic.mac1609_4 NumInternalContention 0
scalar HighwayScenario1.node[28].nic.mac1609_4 totalBusyTime 0.012288
scalar HighwayScenario1.node[28].veinsmobility startTime 53
scalar HighwayScenario1.node[28].veinsmobility totalTime 159
scalar HighwayScenario1.node[28].veinsmobility stopTime 213
scalar HighwayScenario1.node[28].veinsmobility minSpeed 21.17686566035
scalar HighwayScenario1.node[28].veinsmobility maxSpeed 34.13546041866
scalar HighwayScenario1.node[28].veinsmobility totalDistance 4976.1841723998
scalar HighwayScenario1.node[28].veinsmobility totalCO2Emission 1266.27895655
scalar HighwayScenario1.node[0].appl generatedWSMs 0
scalar HighwayScenario1.node[0].appl receivedWSMs 143
scalar HighwayScenario1.node[0].appl generatedBSMs 0
scalar HighwayScenario1.node[0].appl receivedBSMs 0
scalar HighwayScenario1.node[0].appl generatedWSAs 0
scalar HighwayScenario1.node[0].appl receivedWSAs 0
scalar HighwayScenario1.node[0].appl delayBSM_P1 0
scalar HighwayScenario1.node[0].appl delayBSM_P2 8.5169496363636e-005
scalar HighwayScenario1.node[0].nic.phy80211p busyTime 0.00017267924528302
scalar HighwayScenario1.node[0].nic.mac1609_4 ReceivedUnicastPackets 0
scalar HighwayScenario1.node[0].nic.mac1609_4 ReceivedBroadcasts 143
scalar HighwayScenario1.node[0].nic.mac1609_4 SentPackets 0
scalar HighwayScenario1.node[0].nic.mac1609_4 SNIRLostPackets 0
scalar HighwayScenario1.node[0].nic.mac1609_4 RXTXLostPackets 0
scalar HighwayScenario1.node[0].nic.mac1609_4 TotalLostPackets 0
scalar HighwayScenario1.node[0].nic.mac1609_4 DroppedPacketsInMac 0
scalar HighwayScenario1.node[0].nic.mac1609_4 TooLittleTime 0
scalar HighwayScenario1.node[0].nic.mac1609_4 TimesIntoBackoff 0
scalar HighwayScenario1.node[0].nic.mac1609_4 SlotsBackoff 0
scalar HighwayScenario1.node[0].nic.mac1609_4 NumInternalContention 0
scalar HighwayScenario1.node[0].nic.mac1609_4 totalBusyTime 0.036608
scalar HighwayScenario1.node[0].veinsmobility startTime 9
scalar HighwayScenario1.node[0].veinsmobility totalTime 211
scalar HighwayScenario1.node[0].veinsmobility stopTime 221
scalar HighwayScenario1.node[0].veinsmobility minSpeed 0
scalar HighwayScenario1.node[0].veinsmobility maxSpeed 34.093866856236
scalar HighwayScenario1.node[0].veinsmobility totalDistance 4994.4618453356
scalar HighwayScenario1.node[0].veinsmobility totalCO2Emission 1134.2352358923
scalar HighwayScenario1.attackerNode[11].appl generatedWSMs 201
scalar HighwayScenario1.attackerNode[11].appl receivedWSMs 11
scalar HighwayScenario1.attackerNode[11].appl generatedBSMs 1
scalar HighwayScenario1.attackerNode[11].appl receivedBSMs 0
scalar HighwayScenario1.attackerNode[11].appl generatedWSAs 0
scalar HighwayScenario1.attackerNode[11].appl receivedWSAs 0
scalar HighwayScenario1.attackerNode[11].nic.phy80211p busyTime 1.3940594059406e-005
scalar HighwayScenario1.attackerNode[11].nic.mac1609_4 ReceivedUnicastPackets 0
scalar HighwayScenario1.attackerNode[11].nic.mac1609_4 ReceivedBroadcasts 11
scalar HighwayScenario1.attackerNode[11].nic.mac1609_4 SentPackets 202
scalar HighwayScenario1.attackerNode[11].nic.mac1609_4 SNIRLostPackets 0
scalar HighwayScenario1.attackerNode[11].nic.mac1609_4 RXTXLostPackets 0
scalar HighwayScenario1.attackerNode[11].nic.mac1609_4 TotalLostPackets 0
scalar HighwayScenario1.attackerNode[11].nic.mac1609_4 DroppedPacketsInMac 0
scalar HighwayScenario1.attackerNode[11].nic.mac1609_4 TooLittleTime 0
scalar HighwayScenario1.attackerNode[11].nic.mac1609_4 TimesIntoBackoff 202
scalar HighwayScenario1.attackerNode[11].nic.mac1609_4 SlotsBackoff 318
scalar HighwayScenario1.attackerNode[11].nic.mac1609_4 NumInternalContention 0
scalar HighwayScenario1.attackerNode[11].nic.mac1609_4 totalBusyTime 0.054578
scalar HighwayScenario1.attackerNode[11].veinsmobility startTime 24
scalar HighwayScenario1.attackerNode[11].veinsmobility totalTime 201
scalar HighwayScenario1.attackerNode[11].veinsmobility stopTime 226
scalar HighwayScenario1.attackerNode[11].veinsmobility minSpeed 5.6479745648764e-009
scalar HighwayScenario1.attackerNode[11].veinsmobility maxSpeed 46.158338102972
scalar HighwayScenario1.attackerNode[11].veinsmobility totalDistance 4962.3251941858
scalar HighwayScenario1.attackerNode[11].veinsmobility totalCO2Emission 2102.1501040155
scalar HighwayScenario1.node[32].appl generatedWSMs 0
scalar HighwayScenario1.node[32].appl receivedWSMs 155
scalar HighwayScenario1.node[32].appl generatedBSMs 0
scalar HighwayScenario1.node[32].appl receivedBSMs 0
scalar HighwayScenario1.node[32].appl generatedWSAs 0
scalar HighwayScenario1.node[32].appl receivedWSAs 0
scalar HighwayScenario1.node[32].appl delayBSM_P1 0
scalar HighwayScenario1.node[32].appl delayBSM_P2 0
scalar HighwayScenario1.node[32].nic.phy80211p busyTime 0.00023903614457831
scalar HighwayScenario1.node[32].nic.mac1609_4 ReceivedUnicastPackets 0
scalar HighwayScenario1.node[32].nic.mac1609_4 ReceivedBroadcasts 155
scalar HighwayScenario1.node[32].nic.mac1609_4 SentPackets 0
scalar HighwayScenario1.node[32].nic.mac1609_4 SNIRLostPackets 0
scalar HighwayScenario1.node[32].nic.mac1609_4 RXTXLostPackets 0
scalar HighwayScenario1.node[32].nic.mac1609_4 TotalLostPackets 0
scalar HighwayScenario1.node[32].nic.mac1609_4 DroppedPacketsInMac 0
scalar HighwayScenario1.node[32].nic.mac1609_4 TooLittleTime 0
scalar HighwayScenario1.node[32].nic.mac1609_4 TimesIntoBackoff 0
scalar HighwayScenario1.node[32].nic.mac1609_4 SlotsBackoff 0
scalar HighwayScenario1.node[32].nic.mac1609_4 NumInternalContention 0
scalar HighwayScenario1.node[32].nic.mac1609_4 totalBusyTime 0.03968
scalar HighwayScenario1.node[32].veinsmobility startTime 60
scalar HighwayScenario1.node[32].veinsmobility totalTime 165
scalar HighwayScenario1.node[32].veinsmobility stopTime 226
scalar HighwayScenario1.node[32].veinsmobility minSpeed 12.040228764985
scalar HighwayScenario1.node[32].veinsmobility maxSpeed 32.911355632473
scalar HighwayScenario1.node[32].veinsmobility totalDistance 4981.3105432743
scalar HighwayScenario1.node[32].veinsmobility totalCO2Emission 1066.28003577
scalar HighwayScenario1.node[25].appl generatedWSMs 0
scalar HighwayScenario1.node[25].appl receivedWSMs 178
scalar HighwayScenario1.node[25].appl generatedBSMs 0
scalar HighwayScenario1.node[25].appl receivedBSMs 0
scalar HighwayScenario1.node[25].appl generatedWSAs 0
scalar HighwayScenario1.node[25].appl receivedWSAs 0
scalar HighwayScenario1.node[25].appl delayBSM_P1 0
scalar HighwayScenario1.node[25].appl delayBSM_P2 0
scalar HighwayScenario1.node[25].nic.phy80211p busyTime 0.00025456983240223
scalar HighwayScenario1.node[25].nic.mac1609_4 ReceivedUnicastPackets 0
scalar HighwayScenario1.node[25].nic.mac1609_4 ReceivedBroadcasts 178
scalar HighwayScenario1.node[25].nic.mac1609_4 SentPackets 0
scalar HighwayScenario1.node[25].nic.mac1609_4 SNIRLostPackets 0
scalar HighwayScenario1.node[25].nic.mac1609_4 RXTXLostPackets 0
scalar HighwayScenario1.node[25].nic.mac1609_4 TotalLostPackets 0
scalar HighwayScenario1.node[25].nic.mac1609_4 DroppedPacketsInMac 0
scalar HighwayScenario1.node[25].nic.mac1609_4 TooLittleTime 0
scalar HighwayScenario1.node[25].nic.mac1609_4 TimesIntoBackoff 0
scalar HighwayScenario1.node[25].nic.mac1609_4 SlotsBackoff 0
scalar HighwayScenario1.node[25].nic.mac1609_4 NumInternalContention 0
scalar HighwayScenario1.node[25].nic.mac1609_4 totalBusyTime 0.045568
scalar HighwayScenario1.node[25].veinsmobility startTime 48
scalar HighwayScenario1.node[25].veinsmobility totalTime 178
scalar HighwayScenario1.node[25].veinsmobility stopTime 227
scalar HighwayScenario1.node[25].veinsmobility minSpeed 1.619423390969
scalar HighwayScenario1.node[25].veinsmobility maxSpeed 30.216785986039
scalar HighwayScenario1.node[25].veinsmobility totalDistance 4977.6369482828
scalar HighwayScenario1.node[25].veinsmobility totalCO2Emission 1000.6355279489
scalar HighwayScenario1.node[23].appl generatedWSMs 0
scalar HighwayScenario1.node[23].appl receivedWSMs 181
scalar HighwayScenario1.node[23].appl generatedBSMs 0
scalar HighwayScenario1.node[23].appl receivedBSMs 0
scalar HighwayScenario1.node[23].appl generatedWSAs 0
scalar HighwayScenario1.node[23].appl receivedWSAs 0
scalar HighwayScenario1.node[23].appl delayBSM_P1 0
scalar HighwayScenario1.node[23].appl delayBSM_P2 0
scalar HighwayScenario1.node[23].nic.phy80211p busyTime 0.00025320218579235
scalar HighwayScenario1.node[23].nic.mac1609_4 ReceivedUnicastPackets 0
scalar HighwayScenario1.node[23].nic.mac1609_4 ReceivedBroadcasts 181
scalar HighwayScenario1.node[23].nic.mac1609_4 SentPackets 0
scalar HighwayScenario1.node[23].nic.mac1609_4 SNIRLostPackets 0
scalar HighwayScenario1.node[23].nic.mac1609_4 RXTXLostPackets 0
scalar HighwayScenario1.node[23].nic.mac1609_4 TotalLostPackets 0
scalar HighwayScenario1.node[23].nic.mac1609_4 DroppedPacketsInMac 0
scalar HighwayScenario1.node[23].nic.mac1609_4 TooLittleTime 0
scalar HighwayScenario1.node[23].nic.mac1609_4 TimesIntoBackoff 0
scalar HighwayScenario1.node[23].nic.mac1609_4 SlotsBackoff 0
scalar HighwayScenario1.node[23].nic.mac1609_4 NumInternalContention 0
scalar HighwayScenario1.node[23].nic.mac1609_4 totalBusyTime 0.046336
scalar HighwayScenario1.node[23].veinsmobility startTime 45
scalar HighwayScenario1.node[23].veinsmobility totalTime 182
scalar HighwayScenario1.node[23].veinsmobility stopTime 228
scalar HighwayScenario1.node[23].veinsmobility minSpeed 0.011825247768401
scalar HighwayScenario1.node[23].veinsmobility maxSpeed 31.126014239968
scalar HighwayScenario1.node[23].veinsmobility totalDistance 4969.5015020173
scalar HighwayScenario1.node[23].veinsmobility totalCO2Emission 1027.6227031113
scalar HighwayScenario1.node[2].appl generatedWSMs 0
scalar HighwayScenario1.node[2].appl receivedWSMs 167
scalar HighwayScenario1.node[2].appl generatedBSMs 0
scalar HighwayScenario1.node[2].appl receivedBSMs 1
scalar HighwayScenario1.node[2].appl generatedWSAs 0
scalar HighwayScenario1.node[2].appl receivedWSAs 0
scalar HighwayScenario1.node[2].appl delayBSM_P1 0.000107167269
scalar HighwayScenario1.node[2].appl delayBSM_P2 7.441749251497e-005
scalar HighwayScenario1.node[2].nic.phy80211p busyTime 0.0001974930875576
scalar HighwayScenario1.node[2].nic.mac1609_4 ReceivedUnicastPackets 0
scalar HighwayScenario1.node[2].nic.mac1609_4 ReceivedBroadcasts 168
scalar HighwayScenario1.node[2].nic.mac1609_4 SentPackets 0
scalar HighwayScenario1.node[2].nic.mac1609_4 SNIRLostPackets 0
scalar HighwayScenario1.node[2].nic.mac1609_4 RXTXLostPackets 0
scalar HighwayScenario1.node[2].nic.mac1609_4 TotalLostPackets 0
scalar HighwayScenario1.node[2].nic.mac1609_4 DroppedPacketsInMac 0
scalar HighwayScenario1.node[2].nic.mac1609_4 TooLittleTime 0
scalar HighwayScenario1.node[2].nic.mac1609_4 TimesIntoBackoff 0
scalar HighwayScenario1.node[2].nic.mac1609_4 SlotsBackoff 0
scalar HighwayScenario1.node[2].nic.mac1609_4 NumInternalContention 0
scalar HighwayScenario1.node[2].nic.mac1609_4 totalBusyTime 0.042856
scalar HighwayScenario1.node[2].veinsmobility startTime 12
scalar HighwayScenario1.node[2].veinsmobility totalTime 216
scalar HighwayScenario1.node[2].veinsmobility stopTime 229
scalar HighwayScenario1.node[2].veinsmobility minSpeed 0
scalar HighwayScenario1.node[2].veinsmobility maxSpeed 33.794890922114
scalar HighwayScenario1.node[2].veinsmobility totalDistance 4985.0943042753
scalar HighwayScenario1.node[2].veinsmobility totalCO2Emission 1151.6343233482
scalar HighwayScenario1.node[1].appl generatedWSMs 0
scalar HighwayScenario1.node[1].appl receivedWSMs 158
scalar HighwayScenario1.node[1].appl generatedBSMs 0
scalar HighwayScenario1.node[1].appl receivedBSMs 0
scalar HighwayScenario1.node[1].appl generatedWSAs 0
scalar HighwayScenario1.node[1].appl receivedWSAs 0
scalar HighwayScenario1.node[1].appl delayBSM_P1 0
scalar HighwayScenario1.node[1].appl delayBSM_P2 8.5362013050633e-005
scalar HighwayScenario1.node[1].nic.phy80211p busyTime 0.00018469406392694
scalar HighwayScenario1.node[1].nic.mac1609_4 ReceivedUnicastPackets 0
scalar HighwayScenario1.node[1].nic.mac1609_4 ReceivedBroadcasts 158
scalar HighwayScenario1.node[1].nic.mac1609_4 SentPackets 0
scalar HighwayScenario1.node[1].nic.mac1609_4 SNIRLostPackets 0
scalar HighwayScenario1.node[1].nic.mac1609_4 RXTXLostPackets 0
scalar HighwayScenario1.node[1].nic.mac1609_4 TotalLostPackets 0
scalar HighwayScenario1.node[1].nic.mac1609_4 DroppedPacketsInMac 0
scalar HighwayScenario1.node[1].nic.mac1609_4 TooLittleTime 0
scalar HighwayScenario1.node[1].nic.mac1609_4 TimesIntoBackoff 0
scalar HighwayScenario1.node[1].nic.mac1609_4 SlotsBackoff 0
scalar HighwayScenario1.node[1].nic.mac1609_4 NumInternalContention 0
scalar HighwayScenario1.node[1].nic.mac1609_4 totalBusyTime 0.040448
scalar HighwayScenario1.node[1].veinsmobility startTime 11
scalar HighwayScenario1.node[1].veinsmobility totalTime 218
scalar HighwayScenario1.node[1].veinsmobility stopTime 230
scalar HighwayScenario1.node[1].veinsmobility minSpeed 0
scalar HighwayScenario1.node[1].veinsmobility maxSpeed 34.015600074819
scalar HighwayScenario1.node[1].veinsmobility totalDistance 4973.5056038548
scalar HighwayScenario1.node[1].veinsmobility totalCO2Emission 1143.3696190308
scalar HighwayScenario1.node[26].appl generatedWSMs 0
scalar HighwayScenario1.node[26].appl receivedWSMs 157
scalar HighwayScenario1.node[26].appl generatedBSMs 0
scalar HighwayScenario1.node[26].appl receivedBSMs 0
scalar HighwayScenario1.node[26].appl generatedWSAs 0
scalar HighwayScenario1.node[26].appl receivedWSAs 0
scalar HighwayScenario1.node[26].appl delayBSM_P1 0
scalar HighwayScenario1.node[26].appl delayBSM_P2 0
scalar HighwayScenario1.node[26].nic.phy80211p busyTime 0.00022453631284916
scalar HighwayScenario1.node[26].nic.mac1609_4 ReceivedUnicastPackets 0
scalar HighwayScenario1.node[26].nic.mac1609_4 ReceivedBroadcasts 157
scalar HighwayScenario1.node[26].nic.mac1609_4 SentPackets 0
scalar HighwayScenario1.node[26].nic.mac1609_4 SNIRLostPackets 0
scalar HighwayScenario1.node[26].nic.mac1609_4 RXTXLostPackets 0
scalar HighwayScenario1.node[26].nic.mac1609_4 TotalLostPackets 0
scalar HighwayScenario1.node[26].nic.mac1609_4 DroppedPacketsInMac 0
scalar HighwayScenario1.node[26].nic.mac1609_4 TooLittleTime 0
scalar HighwayScenario1.node[26].nic.mac1609_4 TimesIntoBackoff 0
scalar HighwayScenario1.node[26].nic.mac1609_4 SlotsBackoff 0
scalar HighwayScenario1.node[26].nic.mac1609_4 NumInternalContention 0
scalar HighwayScenario1.node[26].nic.mac1609_4 totalBusyTime 0.040192
scalar HighwayScenario1.node[26].veinsmobility startTime 51
scalar HighwayScenario1.node[26].veinsmobility totalTime 178
scalar HighwayScenario1.node[26].veinsmobility stopTime 230
scalar HighwayScenario1.node[26].veinsmobility minSpeed 0.24704960439682
scalar HighwayScenario1.node[26].veinsmobility maxSpeed 31.509271945307
scalar HighwayScenario1.node[26].veinsmobility totalDistance 4990.1582198605
scalar HighwayScenario1.node[26].veinsmobility totalCO2Emission 1052.9580615679
scalar HighwayScenario1.node[34].appl generatedWSMs 0
scalar HighwayScenario1.node[34].appl receivedWSMs 153
scalar HighwayScenario1.node[34].appl generatedBSMs 0
scalar HighwayScenario1.node[34].appl receivedBSMs 0
scalar HighwayScenario1.node[34].appl generatedWSAs 0
scalar HighwayScenario1.node[34].appl receivedWSAs 0
scalar HighwayScenario1.node[34].appl delayBSM_P1 0
scalar HighwayScenario1.node[34].appl delayBSM_P2 0
scalar HighwayScenario1.node[34].nic.phy80211p busyTime 0.00023176331360947
scalar HighwayScenario1.node[34].nic.mac1609_4 ReceivedUnicastPackets 0
scalar HighwayScenario1.node[34].nic.mac1609_4 ReceivedBroadcasts 153
scalar HighwayScenario1.node[34].nic.mac1609_4 SentPackets 0
scalar HighwayScenario1.node[34].nic.mac1609_4 SNIRLostPackets 0
scalar HighwayScenario1.node[34].nic.mac1609_4 RXTXLostPackets 0
scalar HighwayScenario1.node[34].nic.mac1609_4 TotalLostPackets 0
scalar HighwayScenario1.node[34].nic.mac1609_4 DroppedPacketsInMac 0
scalar HighwayScenario1.node[34].nic.mac1609_4 TooLittleTime 0
scalar HighwayScenario1.node[34].nic.mac1609_4 TimesIntoBackoff 0
scalar HighwayScenario1.node[34].nic.mac1609_4 SlotsBackoff 0
scalar HighwayScenario1.node[34].nic.mac1609_4 NumInternalContention 0
scalar HighwayScenario1.node[34].nic.mac1609_4 totalBusyTime 0.039168
scalar HighwayScenario1.node[34].veinsmobility startTime 62
scalar HighwayScenario1.node[34].veinsmobility totalTime 168
scalar HighwayScenario1.node[34].veinsmobility stopTime 231
scalar HighwayScenario1.node[34].veinsmobility minSpeed 14.106352770726
scalar HighwayScenario1.node[34].veinsmobility maxSpeed 32.314363937583
scalar HighwayScenario1.node[34].veinsmobility totalDistance 4977.5305291193
scalar HighwayScenario1.node[34].veinsmobility totalCO2Emission 1112.5145450223
scalar HighwayScenario1.node[3].appl generatedWSMs 0
scalar HighwayScenario1.node[3].appl receivedWSMs 173
scalar HighwayScenario1.node[3].appl generatedBSMs 0
scalar HighwayScenario1.node[3].appl receivedBSMs 1
scalar HighwayScenario1.node[3].appl generatedWSAs 0
scalar HighwayScenario1.node[3].appl receivedWSAs 0
scalar HighwayScenario1.node[3].appl delayBSM_P1 0.000106973592
scalar HighwayScenario1.node[3].appl delayBSM_P2 6.1082843705202e-005
scalar HighwayScenario1.node[3].nic.phy80211p busyTime 0.00019470175438596
scalar HighwayScenario1.node[3].nic.mac1609_4 ReceivedUnicastPackets 0
scalar HighwayScenario1.node[3].nic.mac1609_4 ReceivedBroadcasts 174
scalar HighwayScenario1.node[3].nic.mac1609_4 SentPackets 0
scalar HighwayScenario1.node[3].nic.mac1609_4 SNIRLostPackets 0
scalar HighwayScenario1.node[3].nic.mac1609_4 RXTXLostPackets 0
scalar HighwayScenario1.node[3].nic.mac1609_4 TotalLostPackets 0
scalar HighwayScenario1.node[3].nic.mac1609_4 DroppedPacketsInMac 0
scalar HighwayScenario1.node[3].nic.mac1609_4 TooLittleTime 0
scalar HighwayScenario1.node[3].nic.mac1609_4 TimesIntoBackoff 0
scalar HighwayScenario1.node[3].nic.mac1609_4 SlotsBackoff 0
scalar HighwayScenario1.node[3].nic.mac1609_4 NumInternalContention 0
scalar HighwayScenario1.node[3].nic.mac1609_4 totalBusyTime 0.044392
scalar HighwayScenario1.node[3].veinsmobility startTime 13
scalar HighwayScenario1.node[3].veinsmobility totalTime 227
scalar HighwayScenario1.node[3].veinsmobility stopTime 241
scalar HighwayScenario1.node[3].veinsmobility minSpeed 0
scalar HighwayScenario1.node[3].veinsmobility maxSpeed 31.140392636295
scalar HighwayScenario1.node[3].veinsmobility totalDistance 4985.9851854611
scalar HighwayScenario1.node[3].veinsmobility totalCO2Emission 1048.9804887176
scalar HighwayScenario1.node[29].appl generatedWSMs 0
scalar HighwayScenario1.node[29].appl receivedWSMs 139
scalar HighwayScenario1.node[29].appl generatedBSMs 0
scalar HighwayScenario1.node[29].appl receivedBSMs 0
scalar HighwayScenario1.node[29].appl generatedWSAs 0
scalar HighwayScenario1.node[29].appl receivedWSAs 0
scalar HighwayScenario1.node[29].appl delayBSM_P1 0
scalar HighwayScenario1.node[29].appl delayBSM_P2 0
scalar HighwayScenario1.node[29].nic.phy80211p busyTime 0.00018927659574468
scalar HighwayScenario1.node[29].nic.mac1609_4 ReceivedUnicastPackets 0
scalar HighwayScenario1.node[29].nic.mac1609_4 ReceivedBroadcasts 139
scalar HighwayScenario1.node[29].nic.mac1609_4 SentPackets 0
scalar HighwayScenario1.node[29].nic.mac1609_4 SNIRLostPackets 0
scalar HighwayScenario1.node[29].nic.mac1609_4 RXTXLostPackets 0
scalar HighwayScenario1.node[29].nic.mac1609_4 TotalLostPackets 0
scalar HighwayScenario1.node[29].nic.mac1609_4 DroppedPacketsInMac 0
scalar HighwayScenario1.node[29].nic.mac1609_4 TooLittleTime 0
scalar HighwayScenario1.node[29].nic.mac1609_4 TimesIntoBackoff 0
scalar HighwayScenario1.node[29].nic.mac1609_4 SlotsBackoff 0
scalar HighwayScenario1.node[29].nic.mac1609_4 NumInternalContention 0
scalar HighwayScenario1.node[29].nic.mac1609_4 totalBusyTime 0.035584
scalar HighwayScenario1.node[29].veinsmobility startTime 54
scalar HighwayScenario1.node[29].veinsmobility totalTime 187
scalar HighwayScenario1.node[29].veinsmobility stopTime 242
scalar HighwayScenario1.node[29].veinsmobility minSpeed 0.00021129405975829
scalar HighwayScenario1.node[29].veinsmobility maxSpeed 30.635871680104
scalar HighwayScenario1.node[29].veinsmobility totalDistance 4967.9871423056
scalar HighwayScenario1.node[29].veinsmobility totalCO2Emission 1025.14531031
scalar HighwayScenario1.node[22].appl generatedWSMs 0
scalar HighwayScenario1.node[22].appl receivedWSMs 69
scalar HighwayScenario1.node[22].appl generatedBSMs 0
scalar HighwayScenario1.node[22].appl receivedBSMs 0
scalar HighwayScenario1.node[22].appl generatedWSAs 0
scalar HighwayScenario1.node[22].appl receivedWSAs 0
scalar HighwayScenario1.node[22].appl delayBSM_P1 0
scalar HighwayScenario1.node[22].appl delayBSM_P2 0
scalar HighwayScenario1.node[22].nic.phy80211p busyTime 8.7014778325123e-005
scalar HighwayScenario1.node[22].nic.mac1609_4 ReceivedUnicastPackets 0
scalar HighwayScenario1.node[22].nic.mac1609_4 ReceivedBroadcasts 69
scalar HighwayScenario1.node[22].nic.mac1609_4 SentPackets 0
scalar HighwayScenario1.node[22].nic.mac1609_4 SNIRLostPackets 0
scalar HighwayScenario1.node[22].nic.mac1609_4 RXTXLostPackets 0
scalar HighwayScenario1.node[22].nic.mac1609_4 TotalLostPackets 0
scalar HighwayScenario1.node[22].nic.mac1609_4 DroppedPacketsInMac 0
scalar HighwayScenario1.node[22].nic.mac1609_4 TooLittleTime 0
scalar HighwayScenario1.node[22].nic.mac1609_4 TimesIntoBackoff 0
scalar HighwayScenario1.node[22].nic.mac1609_4 SlotsBackoff 0
scalar HighwayScenario1.node[22].nic.mac1609_4 NumInternalContention 0
scalar HighwayScenario1.node[22].nic.mac1609_4 totalBusyTime 0.017664
scalar HighwayScenario1.node[22].veinsmobility startTime 44
scalar HighwayScenario1.node[22].veinsmobility totalTime 202
scalar HighwayScenario1.node[22].veinsmobility stopTime 247
scalar HighwayScenario1.node[22].veinsmobility minSpeed 0.013138293197228
scalar HighwayScenario1.node[22].veinsmobility maxSpeed 30.506728826949
scalar HighwayScenario1.node[22].veinsmobility totalDistance 4970.7789475694
scalar HighwayScenario1.node[22].veinsmobility totalCO2Emission 1058.1631649747
scalar HighwayScenario1.node[10].appl generatedWSMs 0
scalar HighwayScenario1.node[10].appl receivedWSMs 124
scalar HighwayScenario1.node[10].appl generatedBSMs 0
scalar HighwayScenario1.node[10].appl receivedBSMs 1
scalar HighwayScenario1.node[10].appl generatedWSAs 0
scalar HighwayScenario1.node[10].appl receivedWSAs 0
scalar HighwayScenario1.node[10].appl delayBSM_P1 0.000105959376
scalar HighwayScenario1.node[10].appl delayBSM_P2 2.7786464145161e-005
scalar HighwayScenario1.node[10].nic.phy80211p busyTime 0.00014217857142857
scalar HighwayScenario1.node[10].nic.mac1609_4 ReceivedUnicastPackets 0
scalar HighwayScenario1.node[10].nic.mac1609_4 ReceivedBroadcasts 125
scalar HighwayScenario1.node[10].nic.mac1609_4 SentPackets 0
scalar HighwayScenario1.node[10].nic.mac1609_4 SNIRLostPackets 0
scalar HighwayScenario1.node[10].nic.mac1609_4 RXTXLostPackets 0
scalar HighwayScenario1.node[10].nic.mac1609_4 TotalLostPackets 0
scalar HighwayScenario1.node[10].nic.mac1609_4 DroppedPacketsInMac 0
scalar HighwayScenario1.node[10].nic.mac1609_4 TooLittleTime 0
scalar HighwayScenario1.node[10].nic.mac1609_4 TimesIntoBackoff 0
scalar HighwayScenario1.node[10].nic.mac1609_4 SlotsBackoff 0
scalar HighwayScenario1.node[10].nic.mac1609_4 NumInternalContention 0
scalar HighwayScenario1.node[10].nic.mac1609_4 totalBusyTime 0.031848
scalar HighwayScenario1.node[10].veinsmobility startTime 23
scalar HighwayScenario1.node[10].veinsmobility totalTime 223
scalar HighwayScenario1.node[10].veinsmobility stopTime 247
scalar HighwayScenario1.node[10].veinsmobility minSpeed 0
scalar HighwayScenario1.node[10].veinsmobility maxSpeed 30.293145153059
scalar HighwayScenario1.node[10].veinsmobility totalDistance 4996.3034239372
scalar HighwayScenario1.node[10].veinsmobility totalCO2Emission 1107.6909166139
scalar HighwayScenario1.node[33].appl generatedWSMs 0
scalar HighwayScenario1.node[33].appl receivedWSMs 42
scalar HighwayScenario1.node[33].appl generatedBSMs 0
scalar HighwayScenario1.node[33].appl receivedBSMs 0
scalar HighwayScenario1.node[33].appl generatedWSAs 0
scalar HighwayScenario1.node[33].appl receivedWSAs 0
scalar HighwayScenario1.node[33].appl delayBSM_P1 0
scalar HighwayScenario1.node[33].appl delayBSM_P2 0
scalar HighwayScenario1.node[33].nic.phy80211p busyTime 5.7497326203209e-005
scalar HighwayScenario1.node[33].nic.mac1609_4 ReceivedUnicastPackets 0
scalar HighwayScenario1.node[33].nic.mac1609_4 ReceivedBroadcasts 42
scalar HighwayScenario1.node[33].nic.mac1609_4 SentPackets 0
scalar HighwayScenario1.node[33].nic.mac1609_4 SNIRLostPackets 0
scalar HighwayScenario1.node[33].nic.mac1609_4 RXTXLostPackets 0
scalar HighwayScenario1.node[33].nic.mac1609_4 TotalLostPackets 0
scalar HighwayScenario1.node[33].nic.mac1609_4 DroppedPacketsInMac 0
scalar HighwayScenario1.node[33].nic.mac1609_4 TooLittleTime 0
scalar HighwayScenario1.node[33].nic.mac1609_4 TimesIntoBackoff 0
scalar HighwayScenario1.node[33].nic.mac1609_4 SlotsBackoff 0
scalar HighwayScenario1.node[33].nic.mac1609_4 NumInternalContention 0
scalar HighwayScenario1.node[33].nic.mac1609_4 totalBusyTime 0.010752
scalar HighwayScenario1.node[33].veinsmobility startTime 61
scalar HighwayScenario1.node[33].veinsmobility totalTime 186
scalar HighwayScenario1.node[33].veinsmobility stopTime 248
scalar HighwayScenario1.node[33].veinsmobility minSpeed 3.278798486173
scalar HighwayScenario1.node[33].veinsmobility maxSpeed 31.587286705934
scalar HighwayScenario1.node[33].veinsmobility totalDistance 4965.9787549856
scalar HighwayScenario1.node[33].veinsmobility totalCO2Emission 1156.8035036283
scalar HighwayScenario1.node[36].appl generatedWSMs 0
scalar HighwayScenario1.node[36].appl receivedWSMs 13
scalar HighwayScenario1.node[36].appl generatedBSMs 0
scalar HighwayScenario1.node[36].appl receivedBSMs 0
scalar HighwayScenario1.node[36].appl generatedWSAs 0
scalar HighwayScenario1.node[36].appl receivedWSAs 0
scalar HighwayScenario1.node[36].appl delayBSM_P1 0
scalar HighwayScenario1.node[36].appl delayBSM_P2 0
scalar HighwayScenario1.node[36].nic.phy80211p busyTime 1.8285714285714e-005
scalar HighwayScenario1.node[36].nic.mac1609_4 ReceivedUnicastPackets 0
scalar HighwayScenario1.node[36].nic.mac1609_4 ReceivedBroadcasts 13
scalar HighwayScenario1.node[36].nic.mac1609_4 SentPackets 0
scalar HighwayScenario1.node[36].nic.mac1609_4 SNIRLostPackets 0
scalar HighwayScenario1.node[36].nic.mac1609_4 RXTXLostPackets 0
scalar HighwayScenario1.node[36].nic.mac1609_4 TotalLostPackets 0
scalar HighwayScenario1.node[36].nic.mac1609_4 DroppedPacketsInMac 0
scalar HighwayScenario1.node[36].nic.mac1609_4 TooLittleTime 0
scalar HighwayScenario1.node[36].nic.mac1609_4 TimesIntoBackoff 0
scalar HighwayScenario1.node[36].nic.mac1609_4 SlotsBackoff 0
scalar HighwayScenario1.node[36].nic.mac1609_4 NumInternalContention 0
scalar HighwayScenario1.node[36].nic.mac1609_4 totalBusyTime 0.003328
scalar HighwayScenario1.node[36].veinsmobility startTime 67
scalar HighwayScenario1.node[36].veinsmobility totalTime 181
scalar HighwayScenario1.node[36].veinsmobility stopTime 249
scalar HighwayScenario1.node[36].veinsmobility minSpeed 4.5960972097932
scalar HighwayScenario1.node[36].veinsmobility maxSpeed 32.881592072147
scalar HighwayScenario1.node[36].veinsmobility totalDistance 4992.4581470293
scalar HighwayScenario1.node[36].veinsmobility totalCO2Emission 1144.5893889385
scalar HighwayScenario1.node[41].appl generatedWSMs 0
scalar HighwayScenario1.node[41].appl receivedWSMs 6
scalar HighwayScenario1.node[41].appl generatedBSMs 0
scalar HighwayScenario1.node[41].appl receivedBSMs 0
scalar HighwayScenario1.node[41].appl generatedWSAs 0
scalar HighwayScenario1.node[41].appl receivedWSAs 0
scalar HighwayScenario1.node[41].appl delayBSM_P1 0
scalar HighwayScenario1.node[41].appl delayBSM_P2 0
scalar HighwayScenario1.node[41].nic.phy80211p busyTime 8.7272727272727e-006
scalar HighwayScenario1.node[41].nic.mac1609_4 ReceivedUnicastPackets 0
scalar HighwayScenario1.node[41].nic.mac1609_4 ReceivedBroadcasts 6
scalar HighwayScenario1.node[41].nic.mac1609_4 SentPackets 0
scalar HighwayScenario1.node[41].nic.mac1609_4 SNIRLostPackets 0
scalar HighwayScenario1.node[41].nic.mac1609_4 RXTXLostPackets 0
scalar HighwayScenario1.node[41].nic.mac1609_4 TotalLostPackets 0
scalar HighwayScenario1.node[41].nic.mac1609_4 DroppedPacketsInMac 0
scalar HighwayScenario1.node[41].nic.mac1609_4 TooLittleTime 0
scalar HighwayScenario1.node[41].nic.mac1609_4 TimesIntoBackoff 0
scalar HighwayScenario1.node[41].nic.mac1609_4 SlotsBackoff 0
scalar HighwayScenario1.node[41].nic.mac1609_4 NumInternalContention 0
scalar HighwayScenario1.node[41].nic.mac1609_4 totalBusyTime 0.001536
scalar HighwayScenario1.node[41].veinsmobility startTime 74
scalar HighwayScenario1.node[41].veinsmobility totalTime 175
scalar HighwayScenario1.node[41].veinsmobility stopTime 250
scalar HighwayScenario1.node[41].veinsmobility minSpeed 6.9221771833215
scalar HighwayScenario1.node[41].veinsmobility maxSpeed 34.029700913096
scalar HighwayScenario1.node[41].veinsmobility totalDistance 4982.4480478443
scalar HighwayScenario1.node[41].veinsmobility totalCO2Emission 1145.7951678148
scalar HighwayScenario1.node[37].appl generatedWSMs 0
scalar HighwayScenario1.node[37].appl receivedWSMs 20
scalar HighwayScenario1.node[37].appl generatedBSMs 0
scalar HighwayScenario1.node[37].appl receivedBSMs 0
scalar HighwayScenario1.node[37].appl generatedWSAs 0
scalar HighwayScenario1.node[37].appl receivedWSAs 0
scalar HighwayScenario1.node[37].appl delayBSM_P1 0
scalar HighwayScenario1.node[37].appl delayBSM_P2 0
scalar HighwayScenario1.node[37].nic.phy80211p busyTime 2.8131868131868e-005
scalar HighwayScenario1.node[37].nic.mac1609_4 ReceivedUnicastPackets 0
scalar HighwayScenario1.node[37].nic.mac1609_4 ReceivedBroadcasts 20
scalar HighwayScenario1.node[37].nic.mac1609_4 SentPackets 0
scalar HighwayScenario1.node[37].nic.mac1609_4 SNIRLostPackets 0
scalar HighwayScenario1.node[37].nic.mac1609_4 RXTXLostPackets 0
scalar HighwayScenario1.node[37].nic.mac1609_4 TotalLostPackets 0
scalar HighwayScenario1.node[37].nic.mac1609_4 DroppedPacketsInMac 0
scalar HighwayScenario1.node[37].nic.mac1609_4 TooLittleTime 0
scalar HighwayScenario1.node[37].nic.mac1609_4 TimesIntoBackoff 0
scalar HighwayScenario1.node[37].nic.mac1609_4 SlotsBackoff 0
scalar HighwayScenario1.node[37].nic.mac1609_4 NumInternalContention 0
scalar HighwayScenario1.node[37].nic.mac1609_4 totalBusyTime 0.00512
scalar HighwayScenario1.node[37].veinsmobility startTime 68
scalar HighwayScenario1.node[37].veinsmobility totalTime 181
scalar HighwayScenario1.node[37].veinsmobility stopTime 250
scalar HighwayScenario1.node[37].veinsmobility minSpeed 4.6955531457901
scalar HighwayScenario1.node[37].veinsmobility maxSpeed 30.599643838657
scalar HighwayScenario1.node[37].veinsmobility totalDistance 4983.0006784621
scalar HighwayScenario1.node[37].veinsmobility totalCO2Emission 1055.4335212667
scalar HighwayScenario1.node[43].appl generatedWSMs 0
scalar HighwayScenario1.node[43].appl receivedWSMs 0
scalar HighwayScenario1.node[43].appl generatedBSMs 0
scalar HighwayScenario1.node[43].appl receivedBSMs 0
scalar HighwayScenario1.node[43].appl generatedWSAs 0
scalar HighwayScenario1.node[43].appl receivedWSAs 0
scalar HighwayScenario1.node[43].appl delayBSM_P1 0
scalar HighwayScenario1.node[43].appl delayBSM_P2 0
scalar HighwayScenario1.node[43].nic.phy80211p busyTime 0
scalar HighwayScenario1.node[43].nic.mac1609_4 ReceivedUnicastPackets 0
scalar HighwayScenario1.node[43].nic.mac1609_4 ReceivedBroadcasts 0
scalar HighwayScenario1.node[43].nic.mac1609_4 SentPackets 0
scalar HighwayScenario1.node[43].nic.mac1609_4 SNIRLostPackets 0
scalar HighwayScenario1.node[43].nic.mac1609_4 RXTXLostPackets 0
scalar HighwayScenario1.node[43].nic.mac1609_4 TotalLostPackets 0
scalar HighwayScenario1.node[43].nic.mac1609_4 DroppedPacketsInMac 0
scalar HighwayScenario1.node[43].nic.mac1609_4 TooLittleTime 0
scalar HighwayScenario1.node[43].nic.mac1609_4 TimesIntoBackoff 0
scalar HighwayScenario1.node[43].nic.mac1609_4 SlotsBackoff 0
scalar HighwayScenario1.node[43].nic.mac1609_4 NumInternalContention 0
scalar HighwayScenario1.node[43].nic.mac1609_4 totalBusyTime 0
scalar HighwayScenario1.node[43].veinsmobility startTime 76
scalar HighwayScenario1.node[43].veinsmobility totalTime 174
scalar HighwayScenario1.node[43].veinsmobility stopTime 251
scalar HighwayScenario1.node[43].veinsmobility minSpeed 7.3792478356936
scalar HighwayScenario1.node[43].veinsmobility maxSpeed 32.945867370156
scalar HighwayScenario1.node[43].veinsmobility totalDistance 4972.2680282548
scalar HighwayScenario1.node[43].veinsmobility totalCO2Emission 1254.3938731648
scalar HighwayScenario1.node[35].appl generatedWSMs 0
scalar HighwayScenario1.node[35].appl receivedWSMs 0
scalar HighwayScenario1.node[35].appl generatedBSMs 0
scalar HighwayScenario1.node[35].appl receivedBSMs 0
scalar HighwayScenario1.node[35].appl generatedWSAs 0
scalar HighwayScenario1.node[35].appl receivedWSAs 0
scalar HighwayScenario1.node[35].appl delayBSM_P1 0
scalar HighwayScenario1.node[35].appl delayBSM_P2 0
scalar HighwayScenario1.node[35].nic.phy80211p busyTime 0
scalar HighwayScenario1.node[35].nic.mac1609_4 ReceivedUnicastPackets 0
scalar HighwayScenario1.node[35].nic.mac1609_4 ReceivedBroadcasts 0
scalar HighwayScenario1.node[35].nic.mac1609_4 SentPackets 0
scalar HighwayScenario1.node[35].nic.mac1609_4 SNIRLostPackets 0
scalar HighwayScenario1.node[35].nic.mac1609_4 RXTXLostPackets 0
scalar HighwayScenario1.node[35].nic.mac1609_4 TotalLostPackets 0
scalar HighwayScenario1.node[35].nic.mac1609_4 DroppedPacketsInMac 0
scalar HighwayScenario1.node[35].nic.mac1609_4 TooLittleTime 0
scalar HighwayScenario1.node[35].nic.mac1609_4 TimesIntoBackoff 0
scalar HighwayScenario1.node[35].nic.mac1609_4 SlotsBackoff 0
scalar HighwayScenario1.node[35].nic.mac1609_4 NumInternalContention 0
scalar HighwayScenario1.node[35].nic.mac1609_4 totalBusyTime 0
scalar HighwayScenario1.node[35].veinsmobility startTime 63
scalar HighwayScenario1.node[35].veinsmobility totalTime 190
scalar HighwayScenario1.node[35].veinsmobility stopTime 254
scalar HighwayScenario1.node[35].veinsmobility minSpeed 0.061421548154321
scalar HighwayScenario1.node[35].veinsmobility maxSpeed 33.941142072658
scalar HighwayScenario1.node[35].veinsmobility totalDistance 4975.4131938607
scalar HighwayScenario1.node[35].veinsmobility totalCO2Emission 1165.8876262358
scalar HighwayScenario1.node[44].appl generatedWSMs 0
scalar HighwayScenario1.node[44].appl receivedWSMs 0
scalar HighwayScenario1.node[44].appl generatedBSMs 0
scalar HighwayScenario1.node[44].appl receivedBSMs 0
scalar HighwayScenario1.node[44].appl generatedWSAs 0
scalar HighwayScenario1.node[44].appl receivedWSAs 0
scalar HighwayScenario1.node[44].appl delayBSM_P1 0
scalar HighwayScenario1.node[44].appl delayBSM_P2 0
scalar HighwayScenario1.node[44].nic.phy80211p busyTime 0
scalar HighwayScenario1.node[44].nic.mac1609_4 ReceivedUnicastPackets 0
scalar HighwayScenario1.node[44].nic.mac1609_4 ReceivedBroadcasts 0
scalar HighwayScenario1.node[44].nic.mac1609_4 SentPackets 0
scalar HighwayScenario1.node[44].nic.mac1609_4 SNIRLostPackets 0
scalar HighwayScenario1.node[44].nic.mac1609_4 RXTXLostPackets 0
scalar HighwayScenario1.node[44].nic.mac1609_4 TotalLostPackets 0
scalar HighwayScenario1.node[44].nic.mac1609_4 DroppedPacketsInMac 0
scalar HighwayScenario1.node[44].nic.mac1609_4 TooLittleTime 0
scalar HighwayScenario1.node[44].nic.mac1609_4 TimesIntoBackoff 0
scalar HighwayScenario1.node[44].nic.mac1609_4 SlotsBackoff 0
scalar HighwayScenario1.node[44].nic.mac1609_4 NumInternalContention 0
scalar HighwayScenario1.node[44].nic.mac1609_4 totalBusyTime 0
scalar HighwayScenario1.node[44].veinsmobility startTime 78
scalar HighwayScenario1.node[44].veinsmobility totalTime 176
scalar HighwayScenario1.node[44].veinsmobility stopTime 255
scalar HighwayScenario1.node[44].veinsmobility minSpeed 7.9067225046468
scalar HighwayScenario1.node[44].veinsmobility maxSpeed 30.962191975623
scalar HighwayScenario1.node[44].veinsmobility totalDistance 4992.4305466669
scalar HighwayScenario1.node[44].veinsmobility totalCO2Emission 1022.1632978213
scalar HighwayScenario1.node[45].appl generatedWSMs 0
scalar HighwayScenario1.node[45].appl receivedWSMs 0
scalar HighwayScenario1.node[45].appl generatedBSMs 0
scalar HighwayScenario1.node[45].appl receivedBSMs 0
scalar HighwayScenario1.node[45].appl generatedWSAs 0
scalar HighwayScenario1.node[45].appl receivedWSAs 0
scalar HighwayScenario1.node[45].appl delayBSM_P1 0
scalar HighwayScenario1.node[45].appl delayBSM_P2 0
scalar HighwayScenario1.node[45].nic.phy80211p busyTime 0
scalar HighwayScenario1.node[45].nic.mac1609_4 ReceivedUnicastPackets 0
scalar HighwayScenario1.node[45].nic.mac1609_4 ReceivedBroadcasts 0
scalar HighwayScenario1.node[45].nic.mac1609_4 SentPackets 0
scalar HighwayScenario1.node[45].nic.mac1609_4 SNIRLostPackets 0
scalar HighwayScenario1.node[45].nic.mac1609_4 RXTXLostPackets 0
scalar HighwayScenario1.node[45].nic.mac1609_4 TotalLostPackets 0
scalar HighwayScenario1.node[45].nic.mac1609_4 DroppedPacketsInMac 0
scalar HighwayScenario1.node[45].nic.mac1609_4 TooLittleTime 0
scalar HighwayScenario1.node[45].nic.mac1609_4 TimesIntoBackoff 0
scalar HighwayScenario1.node[45].nic.mac1609_4 SlotsBackoff 0
scalar HighwayScenario1.node[45].nic.mac1609_4 NumInternalContention 0
scalar HighwayScenario1.node[45].nic.mac1609_4 totalBusyTime 0
scalar HighwayScenario1.node[45].veinsmobility startTime 81
scalar HighwayScenario1.node[45].veinsmobility totalTime 174
scalar HighwayScenario1.node[45].veinsmobility stopTime 256
scalar HighwayScenario1.node[45].veinsmobility minSpeed 3.591094619378
scalar HighwayScenario1.node[45].veinsmobility maxSpeed 33.760304118102
scalar HighwayScenario1.node[45].veinsmobility totalDistance 4988.4299054875
scalar HighwayScenario1.node[45].veinsmobility totalCO2Emission 1091.7628069632
scalar HighwayScenario1.node[47].appl generatedWSMs 0
scalar HighwayScenario1.node[47].appl receivedWSMs 0
scalar HighwayScenario1.node[47].appl generatedBSMs 0
scalar HighwayScenario1.node[47].appl receivedBSMs 0
scalar HighwayScenario1.node[47].appl generatedWSAs 0
scalar HighwayScenario1.node[47].appl receivedWSAs 0
scalar HighwayScenario1.node[47].appl delayBSM_P1 0
scalar HighwayScenario1.node[47].appl delayBSM_P2 0
scalar HighwayScenario1.node[47].nic.phy80211p busyTime 0
scalar HighwayScenario1.node[47].nic.mac1609_4 ReceivedUnicastPackets 0
scalar HighwayScenario1.node[47].nic.mac1609_4 ReceivedBroadcasts 0
scalar HighwayScenario1.node[47].nic.mac1609_4 SentPackets 0
scalar HighwayScenario1.node[47].nic.mac1609_4 SNIRLostPackets 0
scalar HighwayScenario1.node[47].nic.mac1609_4 RXTXLostPackets 0
scalar HighwayScenario1.node[47].nic.mac1609_4 TotalLostPackets 0
scalar HighwayScenario1.node[47].nic.mac1609_4 DroppedPacketsInMac 0
scalar HighwayScenario1.node[47].nic.mac1609_4 TooLittleTime 0
scalar HighwayScenario1.node[47].nic.mac1609_4 TimesIntoBackoff 0
scalar HighwayScenario1.node[47].nic.mac1609_4 SlotsBackoff 0
scalar HighwayScenario1.node[47].nic.mac1609_4 NumInternalContention 0
scalar HighwayScenario1.node[47].nic.mac1609_4 totalBusyTime 0
scalar HighwayScenario1.node[47].veinsmobility startTime 85
scalar HighwayScenario1.node[47].veinsmobility totalTime 172
scalar HighwayScenario1.node[47].veinsmobility stopTime 258
scalar HighwayScenario1.node[47].veinsmobility minSpeed 8.9886995522869
scalar HighwayScenario1.node[47].veinsmobility maxSpeed 32.497496376894
scalar HighwayScenario1.node[47].veinsmobility totalDistance 4985.7362926774
scalar HighwayScenario1.node[47].veinsmobility totalCO2Emission 1084.4709397483
scalar HighwayScenario1.node[20].appl generatedWSMs 0
scalar HighwayScenario1.node[20].appl receivedWSMs 91
scalar HighwayScenario1.node[20].appl generatedBSMs 0
scalar HighwayScenario1.node[20].appl receivedBSMs 0
scalar HighwayScenario1.node[20].appl generatedWSAs 0
scalar HighwayScenario1.node[20].appl receivedWSAs 0
scalar HighwayScenario1.node[20].appl delayBSM_P1 0
scalar HighwayScenario1.node[20].appl delayBSM_P2 0
scalar HighwayScenario1.node[20].nic.phy80211p busyTime 0.00010785185185185
scalar HighwayScenario1.node[20].nic.mac1609_4 ReceivedUnicastPackets 0
scalar HighwayScenario1.node[20].nic.mac1609_4 ReceivedBroadcasts 91
scalar HighwayScenario1.node[20].nic.mac1609_4 SentPackets 0
scalar HighwayScenario1.node[20].nic.mac1609_4 SNIRLostPackets 0
scalar HighwayScenario1.node[20].nic.mac1609_4 RXTXLostPackets 0
scalar HighwayScenario1.node[20].nic.mac1609_4 TotalLostPackets 0
scalar HighwayScenario1.node[20].nic.mac1609_4 DroppedPacketsInMac 0
scalar HighwayScenario1.node[20].nic.mac1609_4 TooLittleTime 0
scalar HighwayScenario1.node[20].nic.mac1609_4 TimesIntoBackoff 0
scalar HighwayScenario1.node[20].nic.mac1609_4 SlotsBackoff 0
scalar HighwayScenario1.node[20].nic.mac1609_4 NumInternalContention 0
scalar HighwayScenario1.node[20].nic.mac1609_4 totalBusyTime 0.023296
scalar HighwayScenario1.node[20].veinsmobility startTime 42
scalar HighwayScenario1.node[20].veinsmobility totalTime 215
scalar HighwayScenario1.node[20].veinsmobility stopTime 258
scalar HighwayScenario1.node[20].veinsmobility minSpeed 0.013869726999935
scalar HighwayScenario1.node[20].veinsmobility maxSpeed 27.550967145412
scalar HighwayScenario1.node[20].veinsmobility totalDistance 4982.7843548046
scalar HighwayScenario1.node[20].veinsmobility totalCO2Emission 1038.6061088497
scalar HighwayScenario1.node[4].appl generatedWSMs 0
scalar HighwayScenario1.node[4].appl receivedWSMs 130
scalar HighwayScenario1.node[4].appl generatedBSMs 0
scalar HighwayScenario1.node[4].appl receivedBSMs 1
scalar HighwayScenario1.node[4].appl generatedWSAs 0
scalar HighwayScenario1.node[4].appl receivedWSAs 0
scalar HighwayScenario1.node[4].appl delayBSM_P1 0.00010675463
scalar HighwayScenario1.node[4].appl delayBSM_P2 6.9090107576923e-005
scalar HighwayScenario1.node[4].nic.phy80211p busyTime 0.00013681967213115
scalar HighwayScenario1.node[4].nic.mac1609_4 ReceivedUnicastPackets 0
scalar HighwayScenario1.node[4].nic.mac1609_4 ReceivedBroadcasts 131
scalar HighwayScenario1.node[4].nic.mac1609_4 SentPackets 0
scalar HighwayScenario1.node[4].nic.mac1609_4 SNIRLostPackets 0
scalar HighwayScenario1.node[4].nic.mac1609_4 RXTXLostPackets 0
scalar HighwayScenario1.node[4].nic.mac1609_4 TotalLostPackets 0
scalar HighwayScenario1.node[4].nic.mac1609_4 DroppedPacketsInMac 0
scalar HighwayScenario1.node[4].nic.mac1609_4 TooLittleTime 0
scalar HighwayScenario1.node[4].nic.mac1609_4 TimesIntoBackoff 0
scalar HighwayScenario1.node[4].nic.mac1609_4 SlotsBackoff 0
scalar HighwayScenario1.node[4].nic.mac1609_4 NumInternalContention 0
scalar HighwayScenario1.node[4].nic.mac1609_4 totalBusyTime 0.033384
scalar HighwayScenario1.node[4].veinsmobility startTime 15
scalar HighwayScenario1.node[4].veinsmobility totalTime 243
scalar HighwayScenario1.node[4].veinsmobility stopTime 259
scalar HighwayScenario1.node[4].veinsmobility minSpeed 0
scalar HighwayScenario1.node[4].veinsmobility maxSpeed 30.488415919243
scalar HighwayScenario1.node[4].veinsmobility totalDistance 4966.8641223809
scalar HighwayScenario1.node[4].veinsmobility totalCO2Emission 1094.7414721243
scalar HighwayScenario1.node[49].appl generatedWSMs 0
scalar HighwayScenario1.node[49].appl receivedWSMs 0
scalar HighwayScenario1.node[49].appl generatedBSMs 0
scalar HighwayScenario1.node[49].appl receivedBSMs 0
scalar HighwayScenario1.node[49].appl generatedWSAs 0
scalar HighwayScenario1.node[49].appl receivedWSAs 0
scalar HighwayScenario1.node[49].appl delayBSM_P1 0
scalar HighwayScenario1.node[49].appl delayBSM_P2 0
scalar HighwayScenario1.node[49].nic.phy80211p busyTime 0
scalar HighwayScenario1.node[49].nic.mac1609_4 ReceivedUnicastPackets 0
scalar HighwayScenario1.node[49].nic.mac1609_4 ReceivedBroadcasts 0
scalar HighwayScenario1.node[49].nic.mac1609_4 SentPackets 0
scalar HighwayScenario1.node[49].nic.mac1609_4 SNIRLostPackets 0
scalar HighwayScenario1.node[49].nic.mac1609_4 RXTXLostPackets 0
scalar HighwayScenario1.node[49].nic.mac1609_4 TotalLostPackets 0
scalar HighwayScenario1.node[49].nic.mac1609_4 DroppedPacketsInMac 0
scalar HighwayScenario1.node[49].nic.mac1609_4 TooLittleTime 0
scalar HighwayScenario1.node[49].nic.mac1609_4 TimesIntoBackoff 0
scalar HighwayScenario1.node[49].nic.mac1609_4 SlotsBackoff 0
scalar HighwayScenario1.node[49].nic.mac1609_4 NumInternalContention 0
scalar HighwayScenario1.node[49].nic.mac1609_4 totalBusyTime 0
scalar HighwayScenario1.node[49].veinsmobility startTime 87
scalar HighwayScenario1.node[49].veinsmobility totalTime 172
scalar HighwayScenario1.node[49].veinsmobility stopTime 260
scalar HighwayScenario1.node[49].veinsmobility minSpeed 10.161657345697
scalar HighwayScenario1.node[49].veinsmobility maxSpeed 31.717931285565
scalar HighwayScenario1.node[49].veinsmobility totalDistance 4973.6481075287
scalar HighwayScenario1.node[49].veinsmobility totalCO2Emission 1087.1367022074
scalar HighwayScenario1.node[16].appl generatedWSMs 0
scalar HighwayScenario1.node[16].appl receivedWSMs 98
scalar HighwayScenario1.node[16].appl generatedBSMs 0
scalar HighwayScenario1.node[16].appl receivedBSMs 0
scalar HighwayScenario1.node[16].appl generatedWSAs 0
scalar HighwayScenario1.node[16].appl receivedWSAs 0
scalar HighwayScenario1.node[16].appl delayBSM_P1 0
scalar HighwayScenario1.node[16].appl delayBSM_P2 0
scalar HighwayScenario1.node[16].nic.phy80211p busyTime 0.00011250224215247
scalar HighwayScenario1.node[16].nic.mac1609_4 ReceivedUnicastPackets 0
scalar HighwayScenario1.node[16].nic.mac1609_4 ReceivedBroadcasts 98
scalar HighwayScenario1.node[16].nic.mac1609_4 SentPackets 0
scalar HighwayScenario1.node[16].nic.mac1609_4 SNIRLostPackets 0
scalar HighwayScenario1.node[16].nic.mac1609_4 RXTXLostPackets 0
scalar HighwayScenario1.node[16].nic.mac1609_4 TotalLostPackets 0
scalar HighwayScenario1.node[16].nic.mac1609_4 DroppedPacketsInMac 0
scalar HighwayScenario1.node[16].nic.mac1609_4 TooLittleTime 0
scalar HighwayScenario1.node[16].nic.mac1609_4 TimesIntoBackoff 0
scalar HighwayScenario1.node[16].nic.mac1609_4 SlotsBackoff 0
scalar HighwayScenario1.node[16].nic.mac1609_4 NumInternalContention 0
scalar HighwayScenario1.node[16].nic.mac1609_4 totalBusyTime 0.025088
scalar HighwayScenario1.node[16].veinsmobility startTime 38
scalar HighwayScenario1.node[16].veinsmobility totalTime 222
scalar HighwayScenario1.node[16].veinsmobility stopTime 261
scalar HighwayScenario1.node[16].veinsmobility minSpeed 0.00015164068354821
scalar HighwayScenario1.node[16].veinsmobility maxSpeed 32.101801509873
scalar HighwayScenario1.node[16].veinsmobility totalDistance 4991.1452980403
scalar HighwayScenario1.node[16].veinsmobility totalCO2Emission 1280.3838179416
scalar HighwayScenario1.node[40].appl generatedWSMs 0
scalar HighwayScenario1.node[40].appl receivedWSMs 10
scalar HighwayScenario1.node[40].appl generatedBSMs 0
scalar HighwayScenario1.node[40].appl receivedBSMs 0
scalar HighwayScenario1.node[40].appl generatedWSAs 0
scalar HighwayScenario1.node[40].appl receivedWSAs 0
scalar HighwayScenario1.node[40].appl delayBSM_P1 0
scalar HighwayScenario1.node[40].appl delayBSM_P2 0
scalar HighwayScenario1.node[40].nic.phy80211p busyTime 1.3473684210526e-005
scalar HighwayScenario1.node[40].nic.mac1609_4 ReceivedUnicastPackets 0
scalar HighwayScenario1.node[40].nic.mac1609_4 ReceivedBroadcasts 10
scalar HighwayScenario1.node[40].nic.mac1609_4 SentPackets 0
scalar HighwayScenario1.node[40].nic.mac1609_4 SNIRLostPackets 0
scalar HighwayScenario1.node[40].nic.mac1609_4 RXTXLostPackets 0
scalar HighwayScenario1.node[40].nic.mac1609_4 TotalLostPackets 0
scalar HighwayScenario1.node[40].nic.mac1609_4 DroppedPacketsInMac 0
scalar HighwayScenario1.node[40].nic.mac1609_4 TooLittleTime 0
scalar HighwayScenario1.node[40].nic.mac1609_4 TimesIntoBackoff 0
scalar HighwayScenario1.node[40].nic.mac1609_4 SlotsBackoff 0
scalar HighwayScenario1.node[40].nic.mac1609_4 NumInternalContention 0
scalar HighwayScenario1.node[40].nic.mac1609_4 totalBusyTime 0.00256
scalar HighwayScenario1.node[40].veinsmobility startTime 72
scalar HighwayScenario1.node[40].veinsmobility totalTime 189
scalar HighwayScenario1.node[40].veinsmobility stopTime 262
scalar HighwayScenario1.node[40].veinsmobility minSpeed 5.3750923741206
scalar HighwayScenario1.node[40].veinsmobility maxSpeed 31.200854883763
scalar HighwayScenario1.node[40].veinsmobility totalDistance 4989.2897293348
scalar HighwayScenario1.node[40].veinsmobility totalCO2Emission 1193.551955307
scalar HighwayScenario1.node[51].appl generatedWSMs 0
scalar HighwayScenario1.node[51].appl receivedWSMs 0
scalar HighwayScenario1.node[51].appl generatedBSMs 0
scalar HighwayScenario1.node[51].appl receivedBSMs 0
scalar HighwayScenario1.node[51].appl generatedWSAs 0
scalar HighwayScenario1.node[51].appl receivedWSAs 0
scalar HighwayScenario1.node[51].appl delayBSM_P1 0
scalar HighwayScenario1.node[51].appl delayBSM_P2 0
scalar HighwayScenario1.node[51].nic.phy80211p busyTime 0
scalar HighwayScenario1.node[51].nic.mac1609_4 ReceivedUnicastPackets 0
scalar HighwayScenario1.node[51].nic.mac1609_4 ReceivedBroadcasts 0
scalar HighwayScenario1.node[51].nic.mac1609_4 SentPackets 0
scalar HighwayScenario1.node[51].nic.mac1609_4 SNIRLostPackets 0
scalar HighwayScenario1.node[51].nic.mac1609_4 RXTXLostPackets 0
scalar HighwayScenario1.node[51].nic.mac1609_4 TotalLostPackets 0
scalar HighwayScenario1.node[51].nic.mac1609_4 DroppedPacketsInMac 0
scalar HighwayScenario1.node[51].nic.mac1609_4 TooLittleTime 0
scalar HighwayScenario1.node[51].nic.mac1609_4 TimesIntoBackoff 0
scalar HighwayScenario1.node[51].nic.mac1609_4 SlotsBackoff 0
scalar HighwayScenario1.node[51].nic.mac1609_4 NumInternalContention 0
scalar HighwayScenario1.node[51].nic.mac1609_4 totalBusyTime 0
scalar HighwayScenario1.node[51].veinsmobility startTime 89
scalar HighwayScenario1.node[51].veinsmobility totalTime 173
scalar HighwayScenario1.node[51].veinsmobility stopTime 263
scalar HighwayScenario1.node[51].veinsmobility minSpeed 12.108231287095
scalar HighwayScenario1.node[51].veinsmobility maxSpeed 31.209278751097
scalar HighwayScenario1.node[51].veinsmobility totalDistance 4970.8497086315
scalar HighwayScenario1.node[51].veinsmobility totalCO2Emission 1051.5149467547
scalar HighwayScenario1.node[5].appl generatedWSMs 0
scalar HighwayScenario1.node[5].appl receivedWSMs 92
scalar HighwayScenario1.node[5].appl generatedBSMs 0
scalar HighwayScenario1.node[5].appl receivedBSMs 1
scalar HighwayScenario1.node[5].appl generatedWSAs 0
scalar HighwayScenario1.node[5].appl receivedWSAs 0
scalar HighwayScenario1.node[5].appl delayBSM_P1 0.000106590399
scalar HighwayScenario1.node[5].appl delayBSM_P2 8.0376193902174e-005
scalar HighwayScenario1.node[5].nic.phy80211p busyTime 9.6162601626016e-005
scalar HighwayScenario1.node[5].nic.mac1609_4 ReceivedUnicastPackets 0
scalar HighwayScenario1.node[5].nic.mac1609_4 ReceivedBroadcasts 93
scalar HighwayScenario1.node[5].nic.mac1609_4 SentPackets 0
scalar HighwayScenario1.node[5].nic.mac1609_4 SNIRLostPackets 0
scalar HighwayScenario1.node[5].nic.mac1609_4 RXTXLostPackets 0
scalar HighwayScenario1.node[5].nic.mac1609_4 TotalLostPackets 0
scalar HighwayScenario1.node[5].nic.mac1609_4 DroppedPacketsInMac 0
scalar HighwayScenario1.node[5].nic.mac1609_4 TooLittleTime 0
scalar HighwayScenario1.node[5].nic.mac1609_4 TimesIntoBackoff 0
scalar HighwayScenario1.node[5].nic.mac1609_4 SlotsBackoff 0
scalar HighwayScenario1.node[5].nic.mac1609_4 NumInternalContention 0
scalar HighwayScenario1.node[5].nic.mac1609_4 totalBusyTime 0.023656
scalar HighwayScenario1.node[5].veinsmobility startTime 17
scalar HighwayScenario1.node[5].veinsmobility totalTime 245
scalar HighwayScenario1.node[5].veinsmobility stopTime 263
scalar HighwayScenario1.node[5].veinsmobility minSpeed 0
scalar HighwayScenario1.node[5].veinsmobility maxSpeed 31.904039998454
scalar HighwayScenario1.node[5].veinsmobility totalDistance 4980.7193462209
scalar HighwayScenario1.node[5].veinsmobility totalCO2Emission 1294.6802573373
scalar HighwayScenario1.node[6].appl generatedWSMs 0
scalar HighwayScenario1.node[6].appl receivedWSMs 79
scalar HighwayScenario1.node[6].appl generatedBSMs 0
scalar HighwayScenario1.node[6].appl receivedBSMs 1
scalar HighwayScenario1.node[6].appl generatedWSAs 0
scalar HighwayScenario1.node[6].appl receivedWSAs 0
scalar HighwayScenario1.node[6].appl delayBSM_P1 0.000106444698
scalar HighwayScenario1.node[6].appl delayBSM_P2 6.3565271291139e-005
scalar HighwayScenario1.node[6].nic.phy80211p busyTime 8.2634146341463e-005
scalar HighwayScenario1.node[6].nic.mac1609_4 ReceivedUnicastPackets 0
scalar HighwayScenario1.node[6].nic.mac1609_4 ReceivedBroadcasts 80
scalar HighwayScenario1.node[6].nic.mac1609_4 SentPackets 0
scalar HighwayScenario1.node[6].nic.mac1609_4 SNIRLostPackets 0
scalar HighwayScenario1.node[6].nic.mac1609_4 RXTXLostPackets 0
scalar HighwayScenario1.node[6].nic.mac1609_4 TotalLostPackets 0
scalar HighwayScenario1.node[6].nic.mac1609_4 DroppedPacketsInMac 0
scalar HighwayScenario1.node[6].nic.mac1609_4 TooLittleTime 0
scalar HighwayScenario1.node[6].nic.mac1609_4 TimesIntoBackoff 0
scalar HighwayScenario1.node[6].nic.mac1609_4 SlotsBackoff 0
scalar HighwayScenario1.node[6].nic.mac1609_4 NumInternalContention 0
scalar HighwayScenario1.node[6].nic.mac1609_4 totalBusyTime 0.020328
scalar HighwayScenario1.node[6].veinsmobility startTime 18
scalar HighwayScenario1.node[6].veinsmobility totalTime 245
scalar HighwayScenario1.node[6].veinsmobility stopTime 264
scalar HighwayScenario1.node[6].veinsmobility minSpeed 0
scalar HighwayScenario1.node[6].veinsmobility maxSpeed 32.500519131111
scalar HighwayScenario1.node[6].veinsmobility totalDistance 4967.568938952
scalar HighwayScenario1.node[6].veinsmobility totalCO2Emission 1627.6874376785
scalar HighwayScenario1.node[53].appl generatedWSMs 0
scalar HighwayScenario1.node[53].appl receivedWSMs 0
scalar HighwayScenario1.node[53].appl generatedBSMs 0
scalar HighwayScenario1.node[53].appl receivedBSMs 0
scalar HighwayScenario1.node[53].appl generatedWSAs 0
scalar HighwayScenario1.node[53].appl receivedWSAs 0
scalar HighwayScenario1.node[53].appl delayBSM_P1 0
scalar HighwayScenario1.node[53].appl delayBSM_P2 0
scalar HighwayScenario1.node[53].nic.phy80211p busyTime 0
scalar HighwayScenario1.node[53].nic.mac1609_4 ReceivedUnicastPackets 0
scalar HighwayScenario1.node[53].nic.mac1609_4 ReceivedBroadcasts 0
scalar HighwayScenario1.node[53].nic.mac1609_4 SentPackets 0
scalar HighwayScenario1.node[53].nic.mac1609_4 SNIRLostPackets 0
scalar HighwayScenario1.node[53].nic.mac1609_4 RXTXLostPackets 0
scalar HighwayScenario1.node[53].nic.mac1609_4 TotalLostPackets 0
scalar HighwayScenario1.node[53].nic.mac1609_4 DroppedPacketsInMac 0
scalar HighwayScenario1.node[53].nic.mac1609_4 TooLittleTime 0
scalar HighwayScenario1.node[53].nic.mac1609_4 TimesIntoBackoff 0
scalar HighwayScenario1.node[53].nic.mac1609_4 SlotsBackoff 0
scalar HighwayScenario1.node[53].nic.mac1609_4 NumInternalContention 0
[...]
scalar HighwayScenario1.node[91].veinsmobility minSpeed 25.575664259122
scalar HighwayScenario1.node[91].veinsmobility maxSpeed 33.951434674944
scalar HighwayScenario1.node[91].veinsmobility totalDistance 4984.0062814979
scalar HighwayScenario1.node[91].veinsmobility totalCO2Emission 986.20918898044
scalar HighwayScenario1.node[93].appl generatedWSMs 0
scalar HighwayScenario1.node[93].appl receivedWSMs 0
scalar HighwayScenario1.node[93].appl generatedBSMs 0
scalar HighwayScenario1.node[93].appl receivedBSMs 0
scalar HighwayScenario1.node[93].appl generatedWSAs 0
scalar HighwayScenario1.node[93].appl receivedWSAs 0
scalar HighwayScenario1.node[93].appl delayBSM_P1 0
scalar HighwayScenario1.node[93].appl delayBSM_P2 0
scalar HighwayScenario1.node[93].nic.phy80211p busyTime 0
scalar HighwayScenario1.node[93].nic.mac1609_4 ReceivedUnicastPackets 0
scalar HighwayScenario1.node[93].nic.mac1609_4 ReceivedBroadcasts 0
scalar HighwayScenario1.node[93].nic.mac1609_4 SentPackets 0
scalar HighwayScenario1.node[93].nic.mac1609_4 SNIRLostPackets 0
scalar HighwayScenario1.node[93].nic.mac1609_4 RXTXLostPackets 0
scalar HighwayScenario1.node[93].nic.mac1609_4 TotalLostPackets 0
scalar HighwayScenario1.node[93].nic.mac1609_4 DroppedPacketsInMac 0
scalar HighwayScenario1.node[93].nic.mac1609_4 TooLittleTime 0
scalar HighwayScenario1.node[93].nic.mac1609_4 TimesIntoBackoff 0
scalar HighwayScenario1.node[93].nic.mac1609_4 SlotsBackoff 0
scalar HighwayScenario1.node[93].nic.mac1609_4 NumInternalContention 0
scalar HighwayScenario1.node[93].nic.mac1609_4 totalBusyTime 0
scalar HighwayScenario1.node[93].veinsmobility startTime 177
scalar HighwayScenario1.node[93].veinsmobility totalTime 149
scalar HighwayScenario1.node[93].veinsmobility stopTime 327
scalar HighwayScenario1.node[93].veinsmobility minSpeed 27.75033389385
scalar HighwayScenario1.node[93].veinsmobility maxSpeed 34.040830670268
scalar HighwayScenario1.node[93].veinsmobility totalDistance 4965.6971208015
scalar HighwayScenario1.node[93].veinsmobility totalCO2Emission 958.67732797596
scalar HighwayScenario1.node[89].appl generatedWSMs 0
scalar HighwayScenario1.node[89].appl receivedWSMs 0
scalar HighwayScenario1.node[89].appl generatedBSMs 0
scalar HighwayScenario1.node[89].appl receivedBSMs 0
scalar HighwayScenario1.node[89].appl generatedWSAs 0
scalar HighwayScenario1.node[89].appl receivedWSAs 0
scalar HighwayScenario1.node[89].appl delayBSM_P1 0
scalar HighwayScenario1.node[89].appl delayBSM_P2 0
scalar HighwayScenario1.node[89].nic.phy80211p busyTime 0
scalar HighwayScenario1.node[89].nic.mac1609_4 ReceivedUnicastPackets 0
scalar HighwayScenario1.node[89].nic.mac1609_4 ReceivedBroadcasts 0
scalar HighwayScenario1.node[89].nic.mac1609_4 SentPackets 0
scalar HighwayScenario1.node[89].nic.mac1609_4 SNIRLostPackets 0
scalar HighwayScenario1.node[89].nic.mac1609_4 RXTXLostPackets 0
scalar HighwayScenario1.node[89].nic.mac1609_4 TotalLostPackets 0
scalar HighwayScenario1.node[89].nic.mac1609_4 DroppedPacketsInMac 0
scalar HighwayScenario1.node[89].nic.mac1609_4 TooLittleTime 0
scalar HighwayScenario1.node[89].nic.mac1609_4 TimesIntoBackoff 0
scalar HighwayScenario1.node[89].nic.mac1609_4 SlotsBackoff 0
scalar HighwayScenario1.node[89].nic.mac1609_4 NumInternalContention 0
scalar HighwayScenario1.node[89].nic.mac1609_4 totalBusyTime 0
scalar HighwayScenario1.node[89].veinsmobility startTime 172
scalar HighwayScenario1.node[89].veinsmobility totalTime 160
scalar HighwayScenario1.node[89].veinsmobility stopTime 333
scalar HighwayScenario1.node[89].veinsmobility minSpeed 30.057870567029
scalar HighwayScenario1.node[89].veinsmobility maxSpeed 31.778525476997
scalar HighwayScenario1.node[89].veinsmobility totalDistance 4983.1948071972
scalar HighwayScenario1.node[89].veinsmobility totalCO2Emission 889.28889600668
scalar HighwayScenario1.node[92].appl generatedWSMs 0
scalar HighwayScenario1.node[92].appl receivedWSMs 0
scalar HighwayScenario1.node[92].appl generatedBSMs 0
scalar HighwayScenario1.node[92].appl receivedBSMs 0
scalar HighwayScenario1.node[92].appl generatedWSAs 0
scalar HighwayScenario1.node[92].appl receivedWSAs 0
scalar HighwayScenario1.node[92].appl delayBSM_P1 0
scalar HighwayScenario1.node[92].appl delayBSM_P2 0
scalar HighwayScenario1.node[92].nic.phy80211p busyTime 0
scalar HighwayScenario1.node[92].nic.mac1609_4 ReceivedUnicastPackets 0
scalar HighwayScenario1.node[92].nic.mac1609_4 ReceivedBroadcasts 0
scalar HighwayScenario1.node[92].nic.mac1609_4 SentPackets 0
scalar HighwayScenario1.node[92].nic.mac1609_4 SNIRLostPackets 0
scalar HighwayScenario1.node[92].nic.mac1609_4 RXTXLostPackets 0
scalar HighwayScenario1.node[92].nic.mac1609_4 TotalLostPackets 0
scalar HighwayScenario1.node[92].nic.mac1609_4 DroppedPacketsInMac 0
scalar HighwayScenario1.node[92].nic.mac1609_4 TooLittleTime 0
scalar HighwayScenario1.node[92].nic.mac1609_4 TimesIntoBackoff 0
scalar HighwayScenario1.node[92].nic.mac1609_4 SlotsBackoff 0
scalar HighwayScenario1.node[92].nic.mac1609_4 NumInternalContention 0
scalar HighwayScenario1.node[92].nic.mac1609_4 totalBusyTime 0
scalar HighwayScenario1.node[92].veinsmobility startTime 175
scalar HighwayScenario1.node[92].veinsmobility totalTime 160
scalar HighwayScenario1.node[92].veinsmobility stopTime 336
scalar HighwayScenario1.node[92].veinsmobility minSpeed 23.362496515082
scalar HighwayScenario1.node[92].veinsmobility maxSpeed 31.920466116677
scalar HighwayScenario1.node[92].veinsmobility totalDistance 4987.3656367649
scalar HighwayScenario1.node[92].veinsmobility totalCO2Emission 947.35921681522
scalar HighwayScenario1.node[94].appl generatedWSMs 0
scalar HighwayScenario1.node[94].appl receivedWSMs 0
scalar HighwayScenario1.node[94].appl generatedBSMs 0
scalar HighwayScenario1.node[94].appl receivedBSMs 0
scalar HighwayScenario1.node[94].appl generatedWSAs 0
scalar HighwayScenario1.node[94].appl receivedWSAs 0
scalar HighwayScenario1.node[94].appl delayBSM_P1 0
scalar HighwayScenario1.node[94].appl delayBSM_P2 0
scalar HighwayScenario1.node[94].nic.phy80211p busyTime 0
scalar HighwayScenario1.node[94].nic.mac1609_4 ReceivedUnicastPackets 0
scalar HighwayScenario1.node[94].nic.mac1609_4 ReceivedBroadcasts 0
scalar HighwayScenario1.node[94].nic.mac1609_4 SentPackets 0
scalar HighwayScenario1.node[94].nic.mac1609_4 SNIRLostPackets 0
scalar HighwayScenario1.node[94].nic.mac1609_4 RXTXLostPackets 0
scalar HighwayScenario1.node[94].nic.mac1609_4 TotalLostPackets 0
scalar HighwayScenario1.node[94].nic.mac1609_4 DroppedPacketsInMac 0
scalar HighwayScenario1.node[94].nic.mac1609_4 TooLittleTime 0
scalar HighwayScenario1.node[94].nic.mac1609_4 TimesIntoBackoff 0
scalar HighwayScenario1.node[94].nic.mac1609_4 SlotsBackoff 0
scalar HighwayScenario1.node[94].nic.mac1609_4 NumInternalContention 0
scalar HighwayScenario1.node[94].nic.mac1609_4 totalBusyTime 0
scalar HighwayScenario1.node[94].veinsmobility startTime 179
scalar HighwayScenario1.node[94].veinsmobility totalTime 157
scalar HighwayScenario1.node[94].veinsmobility stopTime 337
scalar HighwayScenario1.node[94].veinsmobility minSpeed 30.694282569092
scalar HighwayScenario1.node[94].veinsmobility maxSpeed 32.360877465391
scalar HighwayScenario1.node[94].veinsmobility totalDistance 4977.5783867184
scalar HighwayScenario1.node[94].veinsmobility totalCO2Emission 890.13265950701
scalar HighwayScenario1.node[97].appl generatedWSMs 0
scalar HighwayScenario1.node[97].appl receivedWSMs 0
scalar HighwayScenario1.node[97].appl generatedBSMs 0
scalar HighwayScenario1.node[97].appl receivedBSMs 0
scalar HighwayScenario1.node[97].appl generatedWSAs 0
scalar HighwayScenario1.node[97].appl receivedWSAs 0
scalar HighwayScenario1.node[97].appl delayBSM_P1 0
scalar HighwayScenario1.node[97].appl delayBSM_P2 0
scalar HighwayScenario1.node[97].nic.phy80211p busyTime 0
scalar HighwayScenario1.node[97].nic.mac1609_4 ReceivedUnicastPackets 0
scalar HighwayScenario1.node[97].nic.mac1609_4 ReceivedBroadcasts 0
scalar HighwayScenario1.node[97].nic.mac1609_4 SentPackets 0
scalar HighwayScenario1.node[97].nic.mac1609_4 SNIRLostPackets 0
scalar HighwayScenario1.node[97].nic.mac1609_4 RXTXLostPackets 0
scalar HighwayScenario1.node[97].nic.mac1609_4 TotalLostPackets 0
scalar HighwayScenario1.node[97].nic.mac1609_4 DroppedPacketsInMac 0
scalar HighwayScenario1.node[97].nic.mac1609_4 TooLittleTime 0
scalar HighwayScenario1.node[97].nic.mac1609_4 TimesIntoBackoff 0
scalar HighwayScenario1.node[97].nic.mac1609_4 SlotsBackoff 0
scalar HighwayScenario1.node[97].nic.mac1609_4 NumInternalContention 0
scalar HighwayScenario1.node[97].nic.mac1609_4 totalBusyTime 0
scalar HighwayScenario1.node[97].veinsmobility startTime 185
scalar HighwayScenario1.node[97].veinsmobility totalTime 156
scalar HighwayScenario1.node[97].veinsmobility stopTime 342
scalar HighwayScenario1.node[97].veinsmobility minSpeed 28.122064727558
scalar HighwayScenario1.node[97].veinsmobility maxSpeed 32.683299019623
scalar HighwayScenario1.node[97].veinsmobility totalDistance 4994.4716212519
scalar HighwayScenario1.node[97].veinsmobility totalCO2Emission 936.96666241127
scalar HighwayScenario1.node[95].appl generatedWSMs 0
scalar HighwayScenario1.node[95].appl receivedWSMs 0
scalar HighwayScenario1.node[95].appl generatedBSMs 0
scalar HighwayScenario1.node[95].appl receivedBSMs 0
scalar HighwayScenario1.node[95].appl generatedWSAs 0
scalar HighwayScenario1.node[95].appl receivedWSAs 0
scalar HighwayScenario1.node[95].appl delayBSM_P1 0
scalar HighwayScenario1.node[95].appl delayBSM_P2 0
scalar HighwayScenario1.node[95].nic.phy80211p busyTime 0
scalar HighwayScenario1.node[95].nic.mac1609_4 ReceivedUnicastPackets 0
scalar HighwayScenario1.node[95].nic.mac1609_4 ReceivedBroadcasts 0
scalar HighwayScenario1.node[95].nic.mac1609_4 SentPackets 0
scalar HighwayScenario1.node[95].nic.mac1609_4 SNIRLostPackets 0
scalar HighwayScenario1.node[95].nic.mac1609_4 RXTXLostPackets 0
scalar HighwayScenario1.node[95].nic.mac1609_4 TotalLostPackets 0
scalar HighwayScenario1.node[95].nic.mac1609_4 DroppedPacketsInMac 0
scalar HighwayScenario1.node[95].nic.mac1609_4 TooLittleTime 0
scalar HighwayScenario1.node[95].nic.mac1609_4 TimesIntoBackoff 0
scalar HighwayScenario1.node[95].nic.mac1609_4 SlotsBackoff 0
scalar HighwayScenario1.node[95].nic.mac1609_4 NumInternalContention 0
scalar HighwayScenario1.node[95].nic.mac1609_4 totalBusyTime 0
scalar HighwayScenario1.node[95].veinsmobility startTime 182
scalar HighwayScenario1.node[95].veinsmobility totalTime 161
scalar HighwayScenario1.node[95].veinsmobility stopTime 344
scalar HighwayScenario1.node[95].veinsmobility minSpeed 30.349733805395
scalar HighwayScenario1.node[95].veinsmobility maxSpeed 31.567908414634
scalar HighwayScenario1.node[95].veinsmobility totalDistance 4985.3008149257
scalar HighwayScenario1.node[95].veinsmobility totalCO2Emission 864.73690537358
scalar HighwayScenario1.node[99].appl generatedWSMs 0
scalar HighwayScenario1.node[99].appl receivedWSMs 0
scalar HighwayScenario1.node[99].appl generatedBSMs 0
scalar HighwayScenario1.node[99].appl receivedBSMs 0
scalar HighwayScenario1.node[99].appl generatedWSAs 0
scalar HighwayScenario1.node[99].appl receivedWSAs 0
scalar HighwayScenario1.node[99].appl delayBSM_P1 0
scalar HighwayScenario1.node[99].appl delayBSM_P2 0
scalar HighwayScenario1.node[99].nic.phy80211p busyTime 0
scalar HighwayScenario1.node[99].nic.mac1609_4 ReceivedUnicastPackets 0
scalar HighwayScenario1.node[99].nic.mac1609_4 ReceivedBroadcasts 0
scalar HighwayScenario1.node[99].nic.mac1609_4 SentPackets 0
scalar HighwayScenario1.node[99].nic.mac1609_4 SNIRLostPackets 0
scalar HighwayScenario1.node[99].nic.mac1609_4 RXTXLostPackets 0
scalar HighwayScenario1.node[99].nic.mac1609_4 TotalLostPackets 0
scalar HighwayScenario1.node[99].nic.mac1609_4 DroppedPacketsInMac 0
scalar HighwayScenario1.node[99].nic.mac1609_4 TooLittleTime 0
scalar HighwayScenario1.node[99].nic.mac1609_4 TimesIntoBackoff 0
scalar HighwayScenario1.node[99].nic.mac1609_4 SlotsBackoff 0
scalar HighwayScenario1.node[99].nic.mac1609_4 NumInternalContention 0
scalar HighwayScenario1.node[99].nic.mac1609_4 totalBusyTime 0
scalar HighwayScenario1.node[99].veinsmobility startTime 188
scalar HighwayScenario1.node[99].veinsmobility totalTime 156
scalar HighwayScenario1.node[99].veinsmobility stopTime 345
scalar HighwayScenario1.node[99].veinsmobility minSpeed 30.322354982578
scalar HighwayScenario1.node[99].veinsmobility maxSpeed 32.599524845509
scalar HighwayScenario1.node[99].veinsmobility totalDistance 4983.8550282571
scalar HighwayScenario1.node[99].veinsmobility totalCO2Emission 906.9788149927
scalar HighwayScenario1.node[101].appl generatedWSMs 0
scalar HighwayScenario1.node[101].appl receivedWSMs 0
scalar HighwayScenario1.node[101].appl generatedBSMs 0
scalar HighwayScenario1.node[101].appl receivedBSMs 0
scalar HighwayScenario1.node[101].appl generatedWSAs 0
scalar HighwayScenario1.node[101].appl receivedWSAs 0
scalar HighwayScenario1.node[101].appl delayBSM_P1 0
scalar HighwayScenario1.node[101].appl delayBSM_P2 0
scalar HighwayScenario1.node[101].nic.phy80211p busyTime 0
scalar HighwayScenario1.node[101].nic.mac1609_4 ReceivedUnicastPackets 0
scalar HighwayScenario1.node[101].nic.mac1609_4 ReceivedBroadcasts 0
scalar HighwayScenario1.node[101].nic.mac1609_4 SentPackets 0
scalar HighwayScenario1.node[101].nic.mac1609_4 SNIRLostPackets 0
scalar HighwayScenario1.node[101].nic.mac1609_4 RXTXLostPackets 0
scalar HighwayScenario1.node[101].nic.mac1609_4 TotalLostPackets 0
scalar HighwayScenario1.node[101].nic.mac1609_4 DroppedPacketsInMac 0
scalar HighwayScenario1.node[101].nic.mac1609_4 TooLittleTime 0
scalar HighwayScenario1.node[101].nic.mac1609_4 TimesIntoBackoff 0
scalar HighwayScenario1.node[101].nic.mac1609_4 SlotsBackoff 0
scalar HighwayScenario1.node[101].nic.mac1609_4 NumInternalContention 0
scalar HighwayScenario1.node[101].nic.mac1609_4 totalBusyTime 0
scalar HighwayScenario1.node[101].veinsmobility startTime 191
scalar HighwayScenario1.node[101].veinsmobility totalTime 159
scalar HighwayScenario1.node[101].veinsmobility stopTime 351
scalar HighwayScenario1.node[101].veinsmobility minSpeed 27.234462961181
scalar HighwayScenario1.node[101].veinsmobility maxSpeed 32.085574700779
scalar HighwayScenario1.node[101].veinsmobility totalDistance 4987.7907455437
scalar HighwayScenario1.node[101].veinsmobility totalCO2Emission 939.62221760174
scalar HighwayScenario1.node[96].appl generatedWSMs 0
scalar HighwayScenario1.node[96].appl receivedWSMs 0
scalar HighwayScenario1.node[96].appl generatedBSMs 0
scalar HighwayScenario1.node[96].appl receivedBSMs 0
scalar HighwayScenario1.node[96].appl generatedWSAs 0
scalar HighwayScenario1.node[96].appl receivedWSAs 0
scalar HighwayScenario1.node[96].appl delayBSM_P1 0
scalar HighwayScenario1.node[96].appl delayBSM_P2 0
scalar HighwayScenario1.node[96].nic.phy80211p busyTime 0
scalar HighwayScenario1.node[96].nic.mac1609_4 ReceivedUnicastPackets 0
scalar HighwayScenario1.node[96].nic.mac1609_4 ReceivedBroadcasts 0
scalar HighwayScenario1.node[96].nic.mac1609_4 SentPackets 0
scalar HighwayScenario1.node[96].nic.mac1609_4 SNIRLostPackets 0
scalar HighwayScenario1.node[96].nic.mac1609_4 RXTXLostPackets 0
scalar HighwayScenario1.node[96].nic.mac1609_4 TotalLostPackets 0
scalar HighwayScenario1.node[96].nic.mac1609_4 DroppedPacketsInMac 0
scalar HighwayScenario1.node[96].nic.mac1609_4 TooLittleTime 0
scalar HighwayScenario1.node[96].nic.mac1609_4 TimesIntoBackoff 0
scalar HighwayScenario1.node[96].nic.mac1609_4 SlotsBackoff 0
scalar HighwayScenario1.node[96].nic.mac1609_4 NumInternalContention 0
scalar HighwayScenario1.node[96].nic.mac1609_4 totalBusyTime 0
scalar HighwayScenario1.node[96].veinsmobility startTime 184
scalar HighwayScenario1.node[96].veinsmobility totalTime 168
scalar HighwayScenario1.node[96].veinsmobility stopTime 353
scalar HighwayScenario1.node[96].veinsmobility minSpeed 28.986130844028
scalar HighwayScenario1.node[96].veinsmobility maxSpeed 30.217691589829
scalar HighwayScenario1.node[96].veinsmobility totalDistance 4975.1666748074
scalar HighwayScenario1.node[96].veinsmobility totalCO2Emission 870.47726776892
scalar HighwayScenario1.node[98].appl generatedWSMs 0
scalar HighwayScenario1.node[98].appl receivedWSMs 0
scalar HighwayScenario1.node[98].appl generatedBSMs 0
scalar HighwayScenario1.node[98].appl receivedBSMs 0
scalar HighwayScenario1.node[98].appl generatedWSAs 0
scalar HighwayScenario1.node[98].appl receivedWSAs 0
scalar HighwayScenario1.node[98].appl delayBSM_P1 0
scalar HighwayScenario1.node[98].appl delayBSM_P2 0
scalar HighwayScenario1.node[98].nic.phy80211p busyTime 0
scalar HighwayScenario1.node[98].nic.mac1609_4 ReceivedUnicastPackets 0
scalar HighwayScenario1.node[98].nic.mac1609_4 ReceivedBroadcasts 0
scalar HighwayScenario1.node[98].nic.mac1609_4 SentPackets 0
scalar HighwayScenario1.node[98].nic.mac1609_4 SNIRLostPackets 0
scalar HighwayScenario1.node[98].nic.mac1609_4 RXTXLostPackets 0
scalar HighwayScenario1.node[98].nic.mac1609_4 TotalLostPackets 0
scalar HighwayScenario1.node[98].nic.mac1609_4 DroppedPacketsInMac 0
scalar HighwayScenario1.node[98].nic.mac1609_4 TooLittleTime 0
scalar HighwayScenario1.node[98].nic.mac1609_4 TimesIntoBackoff 0
scalar HighwayScenario1.node[98].nic.mac1609_4 SlotsBackoff 0
scalar HighwayScenario1.node[98].nic.mac1609_4 NumInternalContention 0
scalar HighwayScenario1.node[98].nic.mac1609_4 totalBusyTime 0
scalar HighwayScenario1.node[98].veinsmobility startTime 186
scalar HighwayScenario1.node[98].veinsmobility totalTime 169
scalar HighwayScenario1.node[98].veinsmobility stopTime 356
scalar HighwayScenario1.node[98].veinsmobility minSpeed 25.508066965333
scalar HighwayScenario1.node[98].veinsmobility maxSpeed 30.167878917755
scalar HighwayScenario1.node[98].veinsmobility totalDistance 4988.1752003177
scalar HighwayScenario1.node[98].veinsmobility totalCO2Emission 879.64275041319
scalar HighwayScenario1.node[100].appl generatedWSMs 0
scalar HighwayScenario1.node[100].appl receivedWSMs 0
scalar HighwayScenario1.node[100].appl generatedBSMs 0
scalar HighwayScenario1.node[100].appl receivedBSMs 0
scalar HighwayScenario1.node[100].appl generatedWSAs 0
scalar HighwayScenario1.node[100].appl receivedWSAs 0
scalar HighwayScenario1.node[100].appl delayBSM_P1 0
scalar HighwayScenario1.node[100].appl delayBSM_P2 0
scalar HighwayScenario1.node[100].nic.phy80211p busyTime 0
scalar HighwayScenario1.node[100].nic.mac1609_4 ReceivedUnicastPackets 0
scalar HighwayScenario1.node[100].nic.mac1609_4 ReceivedBroadcasts 0
scalar HighwayScenario1.node[100].nic.mac1609_4 SentPackets 0
scalar HighwayScenario1.node[100].nic.mac1609_4 SNIRLostPackets 0
scalar HighwayScenario1.node[100].nic.mac1609_4 RXTXLostPackets 0
scalar HighwayScenario1.node[100].nic.mac1609_4 TotalLostPackets 0
scalar HighwayScenario1.node[100].nic.mac1609_4 DroppedPacketsInMac 0
scalar HighwayScenario1.node[100].nic.mac1609_4 TooLittleTime 0
scalar HighwayScenario1.node[100].nic.mac1609_4 TimesIntoBackoff 0
scalar HighwayScenario1.node[100].nic.mac1609_4 SlotsBackoff 0
scalar HighwayScenario1.node[100].nic.mac1609_4 NumInternalContention 0
scalar HighwayScenario1.node[100].nic.mac1609_4 totalBusyTime 0
scalar HighwayScenario1.node[100].veinsmobility startTime 190
scalar HighwayScenario1.node[100].veinsmobility totalTime 169
scalar HighwayScenario1.node[100].veinsmobility stopTime 360
scalar HighwayScenario1.node[100].veinsmobility minSpeed 28.795913016732
scalar HighwayScenario1.node[100].veinsmobility maxSpeed 30.034863774566
scalar HighwayScenario1.node[100].veinsmobility totalDistance 4968.7943029959
scalar HighwayScenario1.node[100].veinsmobility totalCO2Emission 870.75056784255

