file 2570540 1524942047                                         
version 2
run Scenario1Patched-0-20180428-21:00:24-2236
attr configname Scenario1Patched
attr datetime 20180428-21:00:24
attr experiment Scenario1Patched
attr inifile omnetpp.ini
attr iterationvars ""
attr iterationvarsf ""
attr measurement ""
attr network HighwayScenario1
attr processid 2236
attr repetition 0
attr replication #0
attr resultdir results
attr runnumber 0
attr seedset 0
param *.ambulanceNode[*].applType "\"AmbulanceAppLayer_Secure\""
param *.ambulanceNode[*].appl.messageLength 158
param *.ambulanceNode[*].appl.messageValidity 300
param *.attackerNode[*].applType "\"AttackerAppLayer\""
param *.node[*].applType "\"NormalAppLayer_Secure\""
param *.node[*].appl.headerLength "80 bit"
param *.node[*].appl.sendBeacons false
param *.node[*].appl.dataOnSch false
param **.debug false
param **.coreDebug false
param *.playgroundSizeX 5500m
param *.playgroundSizeY 500m
param *.playgroundSizeZ 50m
param *.annotations.draw false
param *.obstacles.debug false
param *.manager.updateInterval 1s
param *.manager.host "\"localhost\""
param *.manager.port 9999
param *.manager.autoShutdown true
param *.manager.launchConfig "xmldoc(\"highway.launchd.xml\")"
param *.connectionManager.sendDirect true
param *.connectionManager.maxInterfDist 2600m
param *.connectionManager.drawMaxIntfDist false
param *.**.nic.mac1609_4.useServiceChannel false
param *.**.nic.mac1609_4.txPower 20mW
param *.**.nic.mac1609_4.bitrate 6Mbps
param *.**.nic.phy80211p.sensitivity -89dBm
param *.**.nic.phy80211p.useThermalNoise true
param *.**.nic.phy80211p.thermalNoise -110dBm
param *.**.nic.phy80211p.decider "xmldoc(\"config.xml\")"
param *.**.nic.phy80211p.analogueModels "xmldoc(\"config.xml\")"
param *.**.nic.phy80211p.usePropagationDelay true
param *.**.nic.phy80211p.antenna "xmldoc(\"antenna.xml\", \"/root/Antenna[@id='monopole']\")"
param *.manager.moduleType "\"ambulance=org.car2x.veins.nodes.Car attacker=org.car2x.veins.nodes.Car *=org.car2x.veins.nodes.Car\""
param *.manager.moduleName "\"ambulance=ambulanceNode attacker=attackerNode *=node\""
param *.node[*].veinsmobilityType.debug true
param *.node[*].veinsmobility.x 0
param *.node[*].veinsmobility.y 0
param *.node[*].veinsmobility.z 1.895
param *.ambulanceNode[*].veinsmobilityType.debug true
param *.ambulanceNode[*].veinsmobility.x 0
param *.ambulanceNode[*].veinsmobility.y 0
param *.ambulanceNode[*].veinsmobility.z 1.895
param *.attackerNode[*].veinsmobilityType.debug true
param *.attackerNode[*].veinsmobility.x 0
param *.attackerNode[*].veinsmobility.y 0
param *.attackerNode[*].veinsmobility.z 1.895

vector 0 HighwayScenario1.node[0].veinsmobility posx ETV
vector 1 HighwayScenario1.node[0].veinsmobility posy ETV
vector 2 HighwayScenario1.node[0].veinsmobility speed ETV
vector 3 HighwayScenario1.node[1].veinsmobility posx ETV
vector 4 HighwayScenario1.node[1].veinsmobility posy ETV
vector 5 HighwayScenario1.node[0].veinsmobility acceleration ETV
vector 6 HighwayScenario1.node[0].veinsmobility co2emission ETV
vector 7 HighwayScenario1.node[2].veinsmobility posx ETV
vector 8 HighwayScenario1.node[2].veinsmobility posy ETV
vector 9 HighwayScenario1.node[1].veinsmobility speed ETV
vector 10 HighwayScenario1.node[3].veinsmobility posx ETV
vector 11 HighwayScenario1.node[3].veinsmobility posy ETV
vector 12 HighwayScenario1.node[1].veinsmobility acceleration ETV
vector 13 HighwayScenario1.node[1].veinsmobility co2emission ETV
vector 14 HighwayScenario1.node[2].veinsmobility speed ETV
vector 15 HighwayScenario1.node[2].veinsmobility acceleration ETV
vector 16 HighwayScenario1.node[2].veinsmobility co2emission ETV
vector 17 HighwayScenario1.node[3].veinsmobility speed ETV
vector 18 HighwayScenario1.node[4].veinsmobility posx ETV
vector 19 HighwayScenario1.node[4].veinsmobility posy ETV
vector 20 HighwayScenario1.node[3].veinsmobility acceleration ETV
vector 21 HighwayScenario1.node[3].veinsmobility co2emission ETV
vector 22 HighwayScenario1.node[4].veinsmobility speed ETV
vector 23 HighwayScenario1.node[5].veinsmobility posx ETV
vector 24 HighwayScenario1.node[5].veinsmobility posy ETV
vector 25 HighwayScenario1.node[4].veinsmobility acceleration ETV
vector 26 HighwayScenario1.node[4].veinsmobility co2emission ETV
vector 27 HighwayScenario1.node[6].veinsmobility posx ETV
vector 28 HighwayScenario1.node[6].veinsmobility posy ETV
vector 29 HighwayScenario1.node[5].veinsmobility speed ETV
vector 30 HighwayScenario1.node[5].veinsmobility acceleration ETV
vector 31 HighwayScenario1.node[5].veinsmobility co2emission ETV
vector 32 HighwayScenario1.node[6].veinsmobility speed ETV
vector 33 HighwayScenario1.node[7].veinsmobility posx ETV
vector 34 HighwayScenario1.node[7].veinsmobility posy ETV
vector 35 HighwayScenario1.node[6].veinsmobility acceleration ETV
vector 36 HighwayScenario1.node[6].veinsmobility co2emission ETV
vector 37 HighwayScenario1.ambulanceNode[8].veinsmobility posx ETV
vector 38 HighwayScenario1.ambulanceNode[8].veinsmobility posy ETV
vector 39 HighwayScenario1.node[7].veinsmobility speed ETV
vector 40 HighwayScenario1.node[9].veinsmobility posx ETV
vector 41 HighwayScenario1.node[9].veinsmobility posy ETV
vector 42 HighwayScenario1.node[7].veinsmobility acceleration ETV
vector 43 HighwayScenario1.node[7].veinsmobility co2emission ETV
vector 44 HighwayScenario1.ambulanceNode[8].veinsmobility speed ETV
vector 45 HighwayScenario1.node[10].veinsmobility posx ETV
vector 46 HighwayScenario1.node[10].veinsmobility posy ETV
vector 47 HighwayScenario1.ambulanceNode[8].veinsmobility acceleration ETV
vector 48 HighwayScenario1.ambulanceNode[8].veinsmobility co2emission ETV
vector 49 HighwayScenario1.node[9].veinsmobility speed ETV
vector 50 HighwayScenario1.attackerNode[11].veinsmobility posx ETV
vector 51 HighwayScenario1.attackerNode[11].veinsmobility posy ETV
vector 52 HighwayScenario1.node[9].veinsmobility acceleration ETV
vector 53 HighwayScenario1.node[9].veinsmobility co2emission ETV
vector 54 HighwayScenario1.node[10].veinsmobility speed ETV
vector 55 HighwayScenario1.node[12].veinsmobility posx ETV
vector 56 HighwayScenario1.node[12].veinsmobility posy ETV
vector 57 HighwayScenario1.node[10].veinsmobility acceleration ETV
vector 58 HighwayScenario1.node[10].veinsmobility co2emission ETV
vector 59 HighwayScenario1.attackerNode[11].veinsmobility speed ETV
vector 60 HighwayScenario1.node[13].veinsmobility posx ETV
vector 61 HighwayScenario1.node[13].veinsmobility posy ETV
vector 62 HighwayScenario1.attackerNode[11].veinsmobility acceleration ETV
vector 63 HighwayScenario1.attackerNode[11].veinsmobility co2emission ETV
vector 64 HighwayScenario1.node[12].veinsmobility speed ETV
vector 65 HighwayScenario1.node[12].veinsmobility acceleration ETV
vector 66 HighwayScenario1.node[12].veinsmobility co2emission ETV
vector 67 HighwayScenario1.node[13].veinsmobility speed ETV
vector 68 HighwayScenario1.node[13].veinsmobility acceleration ETV
vector 69 HighwayScenario1.node[13].veinsmobility co2emission ETV
vector 70 HighwayScenario1.node[14].veinsmobility posx ETV
vector 71 HighwayScenario1.node[14].veinsmobility posy ETV
vector 72 HighwayScenario1.node[14].veinsmobility speed ETV
vector 73 HighwayScenario1.node[14].veinsmobility acceleration ETV
vector 74 HighwayScenario1.node[14].veinsmobility co2emission ETV
vector 75 HighwayScenario1.node[15].veinsmobility posx ETV
vector 76 HighwayScenario1.node[15].veinsmobility posy ETV
vector 77 HighwayScenario1.node[16].veinsmobility posx ETV
vector 78 HighwayScenario1.node[16].veinsmobility posy ETV
vector 79 HighwayScenario1.node[15].veinsmobility speed ETV
vector 80 HighwayScenario1.node[17].veinsmobility posx ETV
vector 81 HighwayScenario1.node[17].veinsmobility posy ETV
vector 82 HighwayScenario1.node[15].veinsmobility acceleration ETV
vector 83 HighwayScenario1.node[15].veinsmobility co2emission ETV
vector 84 HighwayScenario1.node[16].veinsmobility speed ETV
vector 85 HighwayScenario1.node[18].veinsmobility posx ETV
vector 86 HighwayScenario1.node[18].veinsmobility posy ETV
vector 87 HighwayScenario1.node[16].veinsmobility acceleration ETV
vector 88 HighwayScenario1.node[16].veinsmobility co2emission ETV
vector 89 HighwayScenario1.node[17].veinsmobility speed ETV
vector 90 HighwayScenario1.node[19].veinsmobility posx ETV
vector 91 HighwayScenario1.node[19].veinsmobility posy ETV
vector 92 HighwayScenario1.node[17].veinsmobility acceleration ETV
vector 93 HighwayScenario1.node[17].veinsmobility co2emission ETV
vector 94 HighwayScenario1.node[18].veinsmobility speed ETV
vector 95 HighwayScenario1.node[20].veinsmobility posx ETV
vector 96 HighwayScenario1.node[20].veinsmobility posy ETV
vector 97 HighwayScenario1.node[18].veinsmobility acceleration ETV
vector 98 HighwayScenario1.node[18].veinsmobility co2emission ETV
vector 99 HighwayScenario1.node[19].veinsmobility speed ETV
vector 100 HighwayScenario1.node[21].veinsmobility posx ETV
vector 101 HighwayScenario1.node[21].veinsmobility posy ETV
vector 102 HighwayScenario1.node[19].veinsmobility acceleration ETV
vector 103 HighwayScenario1.node[19].veinsmobility co2emission ETV
vector 104 HighwayScenario1.node[20].veinsmobility speed ETV
vector 105 HighwayScenario1.node[22].veinsmobility posx ETV
vector 106 HighwayScenario1.node[22].veinsmobility posy ETV
vector 107 HighwayScenario1.node[20].veinsmobility acceleration ETV
vector 108 HighwayScenario1.node[20].veinsmobility co2emission ETV
vector 109 HighwayScenario1.node[21].veinsmobility speed ETV
vector 110 HighwayScenario1.node[23].veinsmobility posx ETV
vector 111 HighwayScenario1.node[23].veinsmobility posy ETV
vector 112 HighwayScenario1.node[21].veinsmobility acceleration ETV
vector 113 HighwayScenario1.node[21].veinsmobility co2emission ETV
vector 114 HighwayScenario1.node[22].veinsmobility speed ETV
vector 115 HighwayScenario1.node[22].veinsmobility acceleration ETV
vector 116 HighwayScenario1.node[22].veinsmobility co2emission ETV
vector 117 HighwayScenario1.node[23].veinsmobility speed ETV
vector 118 HighwayScenario1.node[24].veinsmobility posx ETV
vector 119 HighwayScenario1.node[24].veinsmobility posy ETV
vector 120 HighwayScenario1.node[23].veinsmobility acceleration ETV
vector 121 HighwayScenario1.node[23].veinsmobility co2emission ETV
vector 122 HighwayScenario1.node[25].veinsmobility posx ETV
vector 123 HighwayScenario1.node[25].veinsmobility posy ETV
vector 124 HighwayScenario1.node[24].veinsmobility speed ETV
vector 125 HighwayScenario1.node[24].veinsmobility acceleration ETV
vector 126 HighwayScenario1.node[24].veinsmobility co2emission ETV
vector 127 HighwayScenario1.node[25].veinsmobility speed ETV
vector 128 HighwayScenario1.node[25].veinsmobility acceleration ETV
vector 129 HighwayScenario1.node[25].veinsmobility co2emission ETV
vector 130 HighwayScenario1.node[26].veinsmobility posx ETV
vector 131 HighwayScenario1.node[26].veinsmobility posy ETV
vector 132 HighwayScenario1.node[27].veinsmobility posx ETV
vector 133 HighwayScenario1.node[27].veinsmobility posy ETV
vector 134 HighwayScenario1.node[26].veinsmobility speed ETV
vector 135 HighwayScenario1.node[28].veinsmobility posx ETV
vector 136 HighwayScenario1.node[28].veinsmobility posy ETV
vector 137 HighwayScenario1.node[26].veinsmobility acceleration ETV
vector 138 HighwayScenario1.node[26].veinsmobility co2emission ETV
vector 139 HighwayScenario1.node[27].veinsmobility speed ETV
vector 140 HighwayScenario1.node[29].veinsmobility posx ETV
vector 141 HighwayScenario1.node[29].veinsmobility posy ETV
vector 142 HighwayScenario1.node[27].veinsmobility acceleration ETV
vector 143 HighwayScenario1.node[27].veinsmobility co2emission ETV
vector 144 HighwayScenario1.node[28].veinsmobility speed ETV
vector 145 HighwayScenario1.node[28].veinsmobility acceleration ETV
vector 146 HighwayScenario1.node[28].veinsmobility co2emission ETV
vector 147 HighwayScenario1.node[29].veinsmobility speed ETV
vector 148 HighwayScenario1.node[30].veinsmobility posx ETV
vector 149 HighwayScenario1.node[30].veinsmobility posy ETV
vector 150 HighwayScenario1.node[29].veinsmobility acceleration ETV
vector 151 HighwayScenario1.node[29].veinsmobility co2emission ETV
vector 152 HighwayScenario1.node[30].veinsmobility speed ETV
vector 153 HighwayScenario1.node[30].veinsmobility acceleration ETV
vector 154 HighwayScenario1.node[30].veinsmobility co2emission ETV
vector 155 HighwayScenario1.node[31].veinsmobility posx ETV
vector 156 HighwayScenario1.node[31].veinsmobility posy ETV
vector 157 HighwayScenario1.node[32].veinsmobility posx ETV
vector 158 HighwayScenario1.node[32].veinsmobility posy ETV
vector 159 HighwayScenario1.node[31].veinsmobility speed ETV
vector 160 HighwayScenario1.node[33].veinsmobility posx ETV
vector 161 HighwayScenario1.node[33].veinsmobility posy ETV
vector 162 HighwayScenario1.node[31].veinsmobility acceleration ETV
vector 163 HighwayScenario1.node[31].veinsmobility co2emission ETV
vector 164 HighwayScenario1.node[32].veinsmobility speed ETV
vector 165 HighwayScenario1.node[34].veinsmobility posx ETV
vector 166 HighwayScenario1.node[34].veinsmobility posy ETV
vector 167 HighwayScenario1.node[32].veinsmobility acceleration ETV
vector 168 HighwayScenario1.node[32].veinsmobility co2emission ETV
vector 169 HighwayScenario1.node[33].veinsmobility speed ETV
vector 170 HighwayScenario1.node[35].veinsmobility posx ETV
vector 171 HighwayScenario1.node[35].veinsmobility posy ETV
vector 172 HighwayScenario1.node[33].veinsmobility acceleration ETV
vector 173 HighwayScenario1.node[33].veinsmobility co2emission ETV
vector 174 HighwayScenario1.node[34].veinsmobility speed ETV
vector 175 HighwayScenario1.node[34].veinsmobility acceleration ETV
vector 176 HighwayScenario1.node[34].veinsmobility co2emission ETV
vector 177 HighwayScenario1.node[35].veinsmobility speed ETV
vector 178 HighwayScenario1.node[35].veinsmobility acceleration ETV
vector 179 HighwayScenario1.node[35].veinsmobility co2emission ETV
vector 180 HighwayScenario1.node[36].veinsmobility posx ETV
vector 181 HighwayScenario1.node[36].veinsmobility posy ETV
vector 182 HighwayScenario1.node[37].veinsmobility posx ETV
vector 183 HighwayScenario1.node[37].veinsmobility posy ETV
vector 184 HighwayScenario1.node[36].veinsmobility speed ETV
0	14422 1554 10 8782 9 68 60 30.1 1949.7314988496 59047.486648802 78126854.873363
1	15976 984 10 8782 9 68 60 29.95 29.95 1797 53820.15
2	16960 1555 11 8782 10 68 59 12.147528267645 34.075686741088 1931.7790271173 63939.18201411
3	18515 1507 12 8782 11 68 58 30.1 1763.7776116258 54670.019823315 68973306.455845
4	20022 955 12 8782 11 68 58 26.65 29.95 1707.4 50345.125
5	20977 1621 12 8782 11 68 58 -7.6778056231172 1.0603816542425 -21.169488814763 167.36669163664
6	22598 1514 12 8782 11 68 58 -2.3041514728992 15.117081574634 345.40341242022 3316.3713394237
7	24112 1483 13 8782 12 68 57 30.1 1576.0656404537 51165.12237211 60806542.879016
8	25595 940 13 8782 12 68 57 29.95 29.95 1707.15 51129.1425
9	26535 1478 13 8782 12 68 57 0 33.934601673137 1733.6776116258 57130.812311947
10	28013 1517 14 8782 13 68 56 30.1 1235.0697380706 43181.74254624 42627819.820058
11	29530 981 14 8782 13 68 56 26.65 29.95 1664 49485.02
12	30511 1597 14 8782 13 68 56 -8 1.0955769990687 -33.666398097449 247.24855782139
13	32108 1473 14 8782 13 68 56 -1.6841891106368 15.316843844227 312.38091694451 2622.8344482736
14	33581 1500 14 8782 13 68 56 0 33.731971482017 1547.872305473 50265.017293213
15	35081 1526 15 8782 14 68 55 -8 2.4112049266114 -31.412788532876 262.04849392924
16	36607 1400 15 8782 14 68 55 -1.0105198976403 25.821204849023 296.36310668669 2756.5294011041
17	38007 1465 15 8782 14 68 55 0 31.132046468844 1204.9782239142 35399.690168328
18	39472 1463 16 8782 15 68 54 30.1 945.85149537203 35302.005871132 28349782.462213
19	40935 949 16 8782 15 68 54 29.95 29.95 1617.3 48438.135
20	41884 1503 16 8782 15 68 54 -8 2.0321942714509 -30.122992319058 269.5008547556
21	43387 1329 16 8782 15 68 54 -0.56222706905305 11.311481055843 223.18700193239 1529.1367603842
22	44716 1309 17 8782 16 68 53 0 30.425612538806 915.75149537203 26042.596891831
23	46025 1401 18 8782 17 68 52 30.1 623.11489240947 25460.01469875 14301530.506562
24	47426 917 18 8782 17 68 52 26.65 29.95 1494.7 43095.31
25	48343 1400 18 8782 17 68 52 -7.8699766051141 2.4549577222206 -29.51341693521 300.49973694963
26	49743 1267 18 8782 17 68 52 -0.63909337126441 12.752220181473 176.63977866866 1088.1041725495
27	51010 1385 19 8782 18 68 51 30.1 278.57970772733 11878.967438346 2957810.0590843
28	52395 901 19 8782 18 68 51 26.65 29.95 1510.95 44813.2275
29	53296 1163 19 8782 18 68 51 0 31.904039998454 594.39231445829 17048.580636199
30	54459 1219 20 8782 19 68 50 -8 2.4594183798763 -29.550464099421 295.65674203495
31	55678 1112 20 8782 19 68 50 -1.5173062106756 10.7287704004 128.11285253959 665.6617830698
32	56790 1165 20 8782 19 68 50 0 32.118278612042 248.47970772733 5684.027777264
33	57955 1336 21 8782 20 68 49 30.1 224.13994314763 9181.6337342467 1819422.7902863
34	59291 869 21 8782 20 68 49 26.65 29.95 1457.65 43392.7825
35	60160 1222 21 8782 20 68 49 -8 2.3933805411798 -28.325111409198 347.70107926508
36	61382 1029 21 8782 20 68 49 0.973 16.224354136452 113.19227736955 768.16895984167
37	62411 1307 22 8782 21 68 48 30.1 1943.889593355 42352.25009701 53214335.904469
38	63718 853 22 8782 21 68 48 26.65 29.95 1289.1 34651.02
39	64571 1110 22 8782 21 68 48 0 31.670424632737 199.11233132805 4222.2114565928
40	65681 1280 76 8782 22 68 47 30.1 166.39145715074 6329.3835296077 897033.16241468
41	66961 837 76 8782 22 68 47 26.65 29.95 1401.05 41785.5575
42	67798 1181 76 8782 22 68 47 -7.9381007629563 2.4135412622127 -26.598036452322 306.46555892223
43	68979 1007 76 8782 22 68 47 0.973 11.019901612745 79.939160108259 281.22282827176
44	69986 1300 76 8782 22 68 47 26.272369076207 49.91039696685 1963.5515498344 84932.825258322
45	71286 1255 136 8782 23 68 46 30.1 187.34576273474 6752.7219407939 1051662.2736904
46	72541 821 136 8782 23 68 46 26.65 29.95 1348 39581.095
47	73362 1286 136 8782 23 68 46 -7 1.9663749062456 22.428415244592 168.04146424607
48	74648 1246 136 8782 23 68 46 0.973 35.47760912281 821.09084929951 17613.672155519
49	75894 1133 136 8782 23 68 46 0 26.684322815108 140.53586304924 2149.3712874484
50	77027 1227 202 8782 24 68 45 30.1 615.61389077592 14931.838169267 7148470.072647
51	78254 804 202 8782 24 68 45 26.65 29.95 1298.25 37563.4125
52	79058 1180 202 8782 24 68 45 -7.8854255055995 2.3163166979793 -21.138603503187 274.7456850099
53	80238 963 202 8782 24 68 45 0.973 12.521155698416 77.043731830248 281.30528856681
54	81201 1100 202 8782 24 68 45 0 29.541503654122 164.92998452863 2355.4437386838
55	82301 1202 341 8782 25 68 44 30.1 1070.4376526601 20672.760995544 14387068.11116
56	83503 787 341 8782 25 68 44 26.65 26.65 1172.6 31249.79
57	84290 1109 341 8782 25 68 44 -8 2.4941520614084 -21.857281860225 362.85685074651
58	85399 957 341 8782 25 68 44 0.973 6.0014180278535 82.337597996956 241.80387366702
59	86356 1266 341 8782 25 68 44 1.6029112306064e-006 35.768380231132 585.51389237883 15146.29914256
60	87622 1174 488 8782 26 68 43 30.1 1030.5789790559 19121.7557723 12801997.65017
61	88796 770 488 8782 26 68 43 26.65 26.65 1145.95 30539.5675
62	89566 1236 488 8782 26 68 43 -10 4.4773334735655 -26.968579437852 792.03914539096
63	90802 1048 488 8782 26 68 43 0.973 42.659691717505 365.3423852621 9849.0831808401
64	91850 1197 488 8782 26 68 43 7.298513280055 30.636806289875 1069.8734506948 28947.576694822
65	93047 1220 647 8782 27 68 42 -6.8919879274501 2.2941323043779 7.8879623172245 122.06528094657
66	94267 1110 647 8782 27 68 42 -0.40093071406429 18.865441018165 273.5888437703 2735.8195802821
67	95377 1170 647 8782 27 68 42 6.9711597384218 32.183314533148 1030.537485903 27979.467857654
68	96547 1187 806 8782 28 68 41 -7.3748711794207 2.4320775174419 12.125935711711 127.6974722397
69	97734 1088 806 8782 28 68 41 -0.98909340751052 18.009367388547 296.43099788145 3409.4296863421
70	98822 1037 1279 8782 31 68 38 30.1 989.813052598 17340.353594838 11317102.768007
71	99859 684 1279 8782 31 68 38 26.65 26.65 1012.7 26988.455
72	100543 1027 1450 8782 32 68 37 15.244564830487 32.01186847389 990.6266360137 27644.329704193
73	101570 1048 1617 8782 33 68 36 -5.3839900592627 2.2679550710018 4.4519321757277 88.8194514551
74	102618 962 1617 8782 33 68 36 -1.1673402909298 20.05204578397 253.61518526007 3106.6118073984
75	103580 871 2237 8782 37 68 32 30.1 912.43712498775 14202.597299366 8713704.8304373
76	104451 576 2237 8782 37 68 32 26.65 29.95 885.8 24594.92
77	105027 843 2384 8782 38 68 31 30.1 608.05889904136 11697.269404018 5752646.4894964
78	105870 558 2384 8782 38 68 31 26.65 29.95 878.95 25005.3775
79	106428 861 2384 8782 38 68 31 15.71293522729 32.00685075864 898.05006021504 26504.195595105
80	107289 816 2535 8782 39 68 30 30.1 888.75821238275 12299.01346306 7188895.6965379
81	108105 540 2535 8782 39 68 30 26.65 26.65 799.5 21306.675
82	108645 873 2535 8782 39 68 30 -7.8167159553126 2.4212021342828 -15.265776939268 169.55510342063
83	109518 777 2535 8782 39 68 30 -1.59356995033 23.77845068585 196.43501796207 2443.8440321857
84	110295 849 2535 8782 39 68 30 0.0099684094773707 31.784881766673 577.99473383323 15818.389196135
85	111144 786 2694 8782 40 68 29 30.1 828.72513470364 11042.963613026 6025168.7112755
86	111930 522 2694 8782 40 68 29 26.65 26.65 772.85 20596.4525
87	112452 847 2694 8782 40 68 29 -7.7367535781564 2.3773390898075 -27.848225484564 250.97076779874
88	113299 690 2694 8782 40 68 29 0.973 21.511683928843 151.95095984679 1746.5942508127
89	113989 810 2694 8782 40 68 29 19.310721093169 35.765690080512 894.26569052574 28376.038318831
90	114799 758 2853 8782 41 68 28 30.1 782.79047617218 9973.6718936324 5135797.7313859
91	115557 504 2853 8782 41 68 28 26.65 26.65 746.2 19886.23
92	116061 808 2853 8782 41 68 28 -5.5661494509556 2.2134758462198 9.8124011075139 65.081773930371
93	116869 753 2853 8782 41 68 28 -1.4683803521401 19.010841359902 265.9529998486 3658.4413679309
94	117622 779 2853 8782 41 68 28 18.433966395362 34.460218281911 832.28961534177 25564.889799536
95	118401 733 3020 8782 42 68 27 30.1 218.88174751092 3699.6044897665 557942.37372091
96	119134 486 3020 8782 42 68 27 26.65 29.95 778.95 22538.0475
97	119620 786 3020 8782 42 68 27 -4.5531477524475 2.3986232595053 11.011873418727 53.547851736072
98	120406 733 3020 8782 42 68 27 -1.6566148353434 23.326365966479 246.4021189599 3254.541536546
99	121139 756 3020 8782 42 68 27 16.799481419044 34.662179125746 787.00572382598 23892.30250039
100	121895 729 3199 8782 43 68 26 30.1 730.43608190853 8805.5837700655 4252509.15425
101	122624 494 3199 8782 43 68 26 26.65 26.65 692.9 18465.785
102	123118 769 3199 8782 43 68 26 -3.7778592945032 2.4619337928016 15.087412263448 54.287601116325
103	123887 749 3199 8782 43 68 26 -1.3137339352467 19.256936679506 252.0570422436 3602.8602944505
104	124636 763 3199 8782 43 68 26 0.013869726999935 27.170908681341 206.22962532046 3596.6523774336
105	125399 703 3386 8782 44 68 25 30.1 156.75460499107 3134.8723598335 424130.86546472
106	126102 475 3386 8782 44 68 25 29.95 29.95 748.75 22425.0625
107	126577 718 3386 8782 44 68 25 -8 2.4696085019968 -8.8749324649361 235.20700033198
108	127295 633 3386 8782 44 68 25 0.973 11.654343765526 83.407754023143 539.374088951
109	127928 721 3386 8782 44 68 25 18.593384859665 33.495188973471 733.30203078927 22135.395745412
110	128649 673 3581 8782 45 68 24 30.1 653.73927827669 7538.7037320225 3299588.6317425
111	129322 456 3581 8782 45 68 24 26.65 29.95 642.9 17232.12
112	129778 715 3581 8782 45 68 24 -5.3713080921062 1.826172357143 9.0012559289719 53.068199371541
113	130493 689 3581 8782 45 68 24 -0.034097379307521 19.618608585644 213.27137480828 2566.076172228
114	131182 708 3581 8782 45 68 24 0.013138293197228 29.617341171178 128.44811708339 2501.9755957457
115	131890 682 3784 8782 46 68 23 -8 2.3358883371111 -27.823829078855 245.17000643268
116	132572 529 3784 8782 46 68 23 -0.66980368132745 5.1891094775372 31.711426847639 71.049867205069
117	133101 666 3784 8782 46 68 23 22.429369642524 30.954581962838 654.2360070464 18818.056193941
118	133767 611 3987 8782 47 68 22 30.1 613.19818148248 6591.9188233219 2723125.4276737
119	134378 418 3987 8782 47 68 22 26.65 26.65 586.3 15624.895
120	134796 663 3987 8782 47 68 22 -0.74021976266522 2.392028774193 7.6155863886305 15.248220938004
121	135459 639 3987 8782 47 68 22 -0.30184390951106 21.630666461248 155.23861206953 1667.5802554364
122	136098 582 4198 8782 48 68 21 30.1 562.35019008107 5749.5964711445 2177405.6073501
123	136680 399 4198 8782 48 68 21 26.65 26.65 559.65 14914.6725
124	137079 608 4198 8782 48 68 21 25.117519587728 31.550879491681 614.64906097416 18077.732466685
125	137687 602 4417 8782 49 68 20 -1.2164844644701 1.5687967084416 5.8402578023648 14.025905710287
126	138289 572 4417 8782 49 68 20 -0.57168742102176 16.11126628357 145.08339635152 1612.386001995
127	138861 579 4417 8782 49 68 20 22.894810399679 30.212236793367 562.40816164634 15932.938097689
128	139440 569 4632 8782 50 68 19 -1.1023166766972 2.1164873745875 7.2631611655885 19.612123299799
129	140009 533 4632 8782 50 68 19 -0.73334835026285 18.601007650561 143.64765174868 1771.694882389
130	140542 497 4847 8782 51 68 18 30.1 192.12130482467 2232.8898704631 312873.13100642
131	141039 342 4847 8782 51 68 18 26.65 29.95 506.1 14278.245
132	141381 471 5066 8782 52 68 17 30.1 510.55465542691 4357.8979379112 1520080.7924303
133	141852 323 5066 8782 52 68 17 26.65 26.65 453.05 12073.7825
134	142175 493 5066 8782 52 68 17 0.24704960439682 30.668080171655 176.30936857315 3054.7173212378
135	142668 441 5289 8782 53 68 16 30.1 468.35257292455 3740.075496204 1194573.7393079
136	143109 304 5289 8782 53 68 16 26.65 26.65 426.4 11363.56
137	143413 458 5289 8782 53 68 16 -8 2.4424908612855 -16.380016423182 222.80564390756
138	143871 394 5289 8782 53 68 16 0.973 7.4229515289213 49.596909221918 246.40609767993
139	144265 463 5289 8782 53 68 16 31.588134379876 32.618717935278 512.72231729435 16431.75930793
140	144728 409 5516 8782 54 68 15 30.1 415.92392055104 3112.1881537651 882748.81681909
141	145137 285 5516 8782 54 68 15 26.65 26.65 399.75 10653.3375
142	145422 455 5516 8782 54 68 15 -0.68497312167892 0.99016658903565 0.40486527189439 3.4287909732121
143	145877 434 5516 8782 54 68 15 0.3349665457685 13.664417748777 89.051947549526 743.3947805637
144	146311 434 5516 8782 54 68 15 29.265617909293 32.492213341512 469.96731555615 14733.333005043
145	146745 423 5735 8782 55 68 14 -1.0000630056464 1.4411268990005 2.449124722303 8.468114142527
146	147168 400 5735 8782 55 68 14 -0.71980089062081 17.071078021899 99.249686843736 1134.7174167715
147	147568 405 5735 8782 55 68 14 26.252187010732 30.625261750946 415.34121475892 12340.498660818
148	147973 351 5950 8782 56 68 13 30.1 149.2177428442 1441.1235618927 183462.69096579
149	148324 247 5950 8782 56 68 13 29.95 29.95 389.35 11661.0325
150	148571 393 5950 8782 56 68 13 -0.98759328742744 2.1162674343213 3.2651071971468 10.698039327212
151	148964 368 5950 8782 56 68 13 0.65981003819064 20.456959544381 91.766531490444 1096.898388018
152	149332 352 6169 8782 57 68 12 0.01796761244059 32.288758142876 119.13571045664 2443.480338058
153	149684 332 6384 8782 58 68 11 -6.8565391994636 0.19200722441829 -32.270790530435 174.64974288578
154	150016 229 6384 8782 58 68 11 0.973 1.7440523129157 11.631253345405 12.839633844025
155	150245 265 6607 8782 59 68 10 30.1 141.183072837 987.405278689 115355.3952428
156	150510 190 6607 8782 59 68 10 29.95 29.95 299.5 8970.025
157	150700 238 6834 8782 60 68 9 30.1 168.85620417948 916.35006214553 115856.05606861
158	150938 171 6834 8782 60 68 9 26.65 29.95 246.45 6765.5625
159	151109 264 6834 8782 60 68 9 0.53284294055668 31.003239200503 111.61591577755 2385.1846171684
160	151373 209 7069 8782 61 68 8 30.1 131.90556157138 690.11080018736 71783.600416407
161	151582 152 7069 8782 61 68 8 26.65 29.95 236.3 6989.24
162	151734 241 7069 8782 61 68 8 -6.9016476706493 -0.13578749394903 -30.470396259946 161.02615274546
163	151975 152 7069 8782 61 68 8 0.973 0.973 7.784 7.573832
164	152127 231 7069 8782 61 68 8 12.040228764985 29.36904583578 153.03182486642 3268.3982846182
165	152358 180 7308 8782 62 68 7 30.1 144.09733845445 585.89262975402 61689.394570177
166	152538 133 7308 8782 62 68 7 26.65 29.95 193.15 5345.1175
167	152671 208 7308 8782 62 68 7 -5.8395821829763 2.2353919219614 -13.803382112555 85.83133765741
168	152879 153 7308 8782 62 68 7 0.973 13.997751998813 28.62086097265 295.89139676554
169	153032 199 7308 8782 62 68 7 3.278798486173 30.661962896434 107.50942968432 2256.4173913793
170	153231 149 7551 8782 63 68 6 30.1 115.9118304675 423.82903374569 36619.16074996
171	153380 114 7551 8782 63 68 6 29.95 29.95 179.7 5382.015
172	153494 175 7551 8782 63 68 6 -6.2449710079086 2.42506962677 -24.958094783491 161.03172035117
173	153669 124 7551 8782 63 68 6 0.973 4.7358762055853 9.6008762055853 27.162168434629
174	153793 173 7551 8782 63 68 6 14.106352770726 28.282050014437 128.10369122518 2916.8615100994
175	153966 150 7798 8782 64 68 5 -5.2103007248385 0.27738289006947 -13.898314353642 59.597274370399
176	154116 105 7798 8782 64 68 5 0.973 6.4547636844824 10.346763684482 45.450890222512
177	154221 143 7798 8782 64 68 5 12.432384862855 30.1694385376 98.244215330353 2160.2572580463
178	154364 120 8045 8782 65 68 4 -5.957581812269 -0.51297612698151 -17.737053674746 99.240348700666
179	154484 76 8045 8782 65 68 4 0.973 0.973 3.892 3.786916
180	154560 36 8535 8782 67 68 2 30.1 30.1 60.2 1812.02
181	154596 38 8535 8782 67 68 2 29.95 29.95 59.9 1794.005
182	154634 18 8782 8782 68 68 1 30.1 30.1 30.1 906.00999999999
183	154652 19 8782 8782 68 68 1 26.65 26.65 26.65 710.2225
184	154671 28 8782 8782 68 68 1 31.90460961999 31.90460961999 31.90460961999 1017.9041150039
vector 185 HighwayScenario1.node[36].veinsmobility acceleration ETV
vector 186 HighwayScenario1.node[36].veinsmobility co2emission ETV
vector 187 HighwayScenario1.node[37].veinsmobility speed ETV
vector 188 HighwayScenario1.node[38].veinsmobility posx ETV
vector 189 HighwayScenario1.node[38].veinsmobility posy ETV
vector 190 HighwayScenario1.node[37].veinsmobility acceleration ETV
vector 191 HighwayScenario1.node[37].veinsmobility co2emission ETV
vector 192 HighwayScenario1.node[39].veinsmobility posx ETV
vector 193 HighwayScenario1.node[39].veinsmobility posy ETV
vector 194 HighwayScenario1.node[38].veinsmobility speed ETV
vector 195 HighwayScenario1.node[40].veinsmobility posx ETV
vector 196 HighwayScenario1.node[40].veinsmobility posy ETV
vector 197 HighwayScenario1.node[38].veinsmobility acceleration ETV
vector 198 HighwayScenario1.node[38].veinsmobility co2emission ETV
vector 199 HighwayScenario1.node[39].veinsmobility speed ETV
vector 200 HighwayScenario1.node[39].veinsmobility acceleration ETV
vector 201 HighwayScenario1.node[39].veinsmobility co2emission ETV
vector 202 HighwayScenario1.node[40].veinsmobility speed ETV
vector 203 HighwayScenario1.node[41].veinsmobility posx ETV
vector 204 HighwayScenario1.node[41].veinsmobility posy ETV
vector 205 HighwayScenario1.node[40].veinsmobility acceleration ETV
vector 206 HighwayScenario1.node[40].veinsmobility co2emission ETV
vector 207 HighwayScenario1.node[42].veinsmobility posx ETV
vector 208 HighwayScenario1.node[42].veinsmobility posy ETV
vector 209 HighwayScenario1.node[41].veinsmobility speed ETV
vector 210 HighwayScenario1.node[43].veinsmobility posx ETV
vector 211 HighwayScenario1.node[43].veinsmobility posy ETV
vector 212 HighwayScenario1.node[41].veinsmobility acceleration ETV
vector 213 HighwayScenario1.node[41].veinsmobility co2emission ETV
vector 214 HighwayScenario1.node[42].veinsmobility speed ETV
0	156625 220 9025 10810 69 76 8 1961.8790271173 1967.3199766049 15732.708793552 30939791.171702
1	156845 140 9025 10810 69 76 8 29.95 29.95 239.6 7176.02
2	156985 183 9025 10810 69 76 8 0 5.1435419291422 7.421439159879 30.42494849304
3	157168 220 9025 10810 69 76 8 1763.7776116258 1794.3652388105 14210.230391978 25242455.567056
4	157388 140 9025 10810 69 76 8 29.95 29.95 239.6 7176.02
5	157528 203 9025 10810 69 76 8 -7.0039863385026 1.9804896722781 -10.167038595367 77.493668426266
6	157731 169 9025 10810 69 76 8 0.973 2.1515402164457 9.2390760186239 11.832605046373
7	157900 219 9025 10810 69 76 8 1577.972305473 1604.4340790787 12756.988941703 20343422.537667
8	158119 140 9025 10810 69 76 8 29.95 29.95 239.6 7176.02
9	158259 207 9025 10810 69 76 8 0 8.8030329290046 30.749840442707 204.16598507711
10	158466 228 9025 10810 69 76 8 1235.0782239142 1237.6131972309 9889.4197239353 12225088.051536
11	158694 148 9025 10810 69 76 8 29.95 29.95 239.6 7176.02
12	158842 215 9025 10810 69 76 8 -7.2955957070992 2.4629564853967 0.16221325794549 73.053053913358
13	159057 198 9025 10810 69 76 8 0.973 6.5366815157976 21.523324108309 84.517496700851
14	159255 218 9025 10810 69 76 8 0 7.7524722325967 26.461773605655 162.23012023034
15	159473 236 9025 10810 69 76 8 -6.7665924060151 2.0806272813934 -1.9066650193417 56.367874782141
16	159709 188 9025 10810 69 76 8 0.973 4.3408005379941 17.622581528514 52.987940265794
17	159897 177 9025 10810 69 76 8 0 1.6077914123889 2.5349733166893 3.0138158695573
18	160074 228 9025 10810 69 76 8 945.85149537203 953.72059032438 7590.5441051437 7202137.2116083
19	160302 148 9025 10810 69 76 8 29.95 29.95 239.6 7176.02
20	160450 212 9025 10810 69 76 8 -1.0911309262326 1.6077914123889 -0.008485843595315 3.9440279880098
21	160662 158 9025 10810 69 76 8 0.973 1.8109271637659 8.6219271637659 9.9065601924653
22	160820 189 9025 10810 69 76 8 0 4.3712930908077 7.9053431390015 24.506834150677
23	161009 226 9025 10810 69 76 8 624.49231445829 633.6049208769 5042.4843371439 3178388.3464844
24	161235 148 9025 10810 69 76 8 29.95 29.95 239.6 7176.02
25	161383 190 9025 10810 69 76 8 -3.2520794115202 2.3708773060935 0.036248186653881 20.864797358362
26	161573 168 9025 10810 69 76 8 0.973 3.8262630613997 11.835903469035 25.036685075105
27	161741 228 9025 10810 69 76 8 278.57970772733 290.53038020842 2271.3210069021 645075.12890003
28	161969 148 9025 10810 69 76 8 29.95 29.95 239.6 7176.02
29	162117 187 9025 10810 69 76 8 0 3.7055669027379 12.518303550237 40.23279595549
30	162304 204 9025 10810 69 76 8 -3.6852035896327 2.2493549872888 2.0282750828057 23.398013413044
31	162508 188 9025 10810 69 76 8 0.973 2.5948469602823 12.953728688448 24.671503199988
32	162696 204 9025 10810 69 76 8 0 4.7537036458133 12.00065146124 44.094723007656
33	162900 227 9025 10810 69 76 8 229.21233132805 232.92816522125 1846.278270379 426100.22147946
34	163127 148 9025 10810 69 76 8 29.95 29.95 239.6 7176.02
35	163275 205 9025 10810 69 76 8 -3.776764832764 2.0315591213875 0.049978980146567 23.67152252044
36	163480 186 9025 10810 69 76 8 0.973 3.2963152852109 12.644580274171 25.327907585167
37	163666 228 9025 10810 69 76 8 1993.6515498344 2339.7084346508 17333.766893496 37660214.11599
38	163894 148 9025 10810 69 76 8 26.65 26.65 213.2 5681.78
39	164042 189 9025 10810 69 76 8 0 4.5359565748367 8.2517904680384 26.598322292645
40	164231 228 9025 10810 69 76 8 170.63586304924 175.86879272915 1401.0666795873 245396.76958718
41	164459 148 9025 10810 69 76 8 29.95 29.95 239.6 7176.02
42	164607 208 9025 10810 69 76 8 -3.9678386200496 2.3826319130603 -0.5364316055784 26.673626607971
43	164815 168 9025 10810 69 76 8 0.973 3.9420470650187 12.112316319211 26.659588936874
44	164983 228 9025 10810 69 76 8 49.218520399416 49.674882088555 395.47145274444 19549.840907847
45	165211 227 9025 10810 69 76 8 195.02998452863 229.19452040233 1741.1915489001 379925.5750473
46	165438 148 9025 10810 69 76 8 26.65 29.95 229.7 6615.68
47	165586 244 9025 10810 69 76 8 -0.41103481384926 0.33405856415629 -0.34738855133764 0.41476360782964
48	165830 228 9025 10810 69 76 8 9.7054804451918 18.829113681663 113.1344733592 1659.4206170946
49	166058 190 9025 10810 69 76 8 0 4.7903683403349 7.4233234071288 27.839486139088
50	166248 226 9025 10810 69 76 8 615.61389237883 623.8545658892 4971.6280364113 3089719.7261598
51	166474 148 9025 10810 69 76 8 29.95 29.95 239.6 7176.02
52	166622 206 9025 10810 69 76 8 -4.5402382967796 2.1903937272145 -2.0540121712838 25.741209808988
53	166828 178 9025 10810 69 76 8 0.973 2.3729111625391 10.334852457496 15.534980836663
54	167006 231 9025 10810 69 76 8 0.029982146876497 11.864927168062 39.410750162981 325.84109338674
55	167237 228 9025 10810 69 76 8 1099.9734506948 1311.5272120214 9647.3474375291 11672361.640161
56	167465 148 9025 10810 69 76 8 26.65 26.65 213.2 5681.78
57	167613 233 9025 10810 69 76 8 -6.0710437247967 2.3332007112913 -2.4380075046098 87.303865826223
58	167846 205 9025 10810 69 76 8 0.973 7.3189134375977 25.827328249657 130.93933609906
59	168051 242 9025 10810 69 76 8 5.6479745648764e-009 3.5483726388473 10.3942181331 28.716760234189
60	168293 225 9025 10810 69 76 8 1060.637485903 1271.1666845539 9329.3523826243 10917802.737552
61	168518 148 9025 10810 69 76 8 26.65 26.65 213.2 5681.78
62	168666 243 9025 10810 69 76 8 -3.2943576419805 2.1535446170858 2.1535430198225 20.674822824601
63	168909 207 9025 10810 69 76 8 0.973 2.5922864659535 12.355046723266 21.84776979479
64	169116 225 9025 10810 69 76 8 29.457228222489 30.536887350352 241.01098954909 7261.7678764187
65	169341 242 9025 10810 69 76 8 -0.68610865972005 0.66203801776282 -0.078569812176283 1.6223528652338
66	169583 230 9025 10810 69 76 8 0.021484160216848 9.9287441903486 40.358569900039 291.64106865276
67	169813 228 9025 10810 69 76 8 29.360993520038 30.926794222712 240.41803770923 7226.7266185432
68	170041 240 9025 10810 69 76 8 -1.2660932192534 0.56941012700321 -0.16966778879828 2.5814601252473
69	170281 217 9025 10810 69 76 8 0.973 9.3683208707151 44.706980403041 320.20516811962
70	170498 228 9025 10810 69 76 8 1020.7266360137 1231.5406880592 9007.6132719765 10180318.303245
71	170726 148 9025 10810 69 76 8 26.65 26.65 213.2 5681.78
72	170874 223 9025 10810 69 76 8 29.421933950098 30.80412537339 240.8612208682 7253.2124433813
73	171097 238 9025 10810 69 76 8 -1.491649465604 1.382191423292 -0.86641459297942 6.0218855485078
74	171335 221 9025 10810 69 76 8 -0.9907105088458 15.557316880438 41.709507132158 446.83027698932
75	171556 227 9025 10810 69 76 8 928.15006021504 946.4204843786 7506.8077354079 7044213.0687056
76	171783 148 9025 10810 69 76 8 26.65 29.95 233 6802.46
77	171931 228 9025 10810 69 76 8 608.09473383323 618.19927550136 4903.6167278995 3005799.3645748
78	172159 148 9025 10810 69 76 8 26.65 29.95 233 6802.46
79	172307 231 9025 10810 69 76 8 0.028618813325179 7.9399441933208 24.62620189697 131.60242347501
80	172538 228 9025 10810 69 76 8 924.36569052574 1168.4946243128 8369.0505261972 8806361.1725717
81	172766 148 9025 10810 69 76 8 26.65 26.65 213.2 5681.78
82	172914 233 9025 10810 69 76 8 -7.7729910339694 2.2873754493776 -9.3571574938825 114.88302890573
83	173147 188 9025 10810 69 76 8 0.973 4.9439907955343 15.214527843492 42.371266946137
84	173335 231 9025 10810 69 76 8 0.014238252458925 3.7350248921709 13.567048064743 37.440076324231
85	173566 227 9025 10810 69 76 8 862.38961534177 1098.2579305764 7841.6966549358 7733926.3598669
86	173793 148 9025 10810 69 76 8 26.65 26.65 213.2 5681.78
87	173941 231 9025 10810 69 76 8 -3.153595545369 1.6655083672958 3.4266716047475 20.044747146639
88	174172 207 9025 10810 69 76 8 0.973 2.6164048001383 13.553795353595 25.899295028119
89	174379 228 9025 10810 69 76 8 34.540718351414 35.323295890044 278.8376123615 9719.5975842276
90	174607 227 9025 10810 69 76 8 817.10572382598 1053.5242278359 7480.4502801374 7042287.986899
91	174834 148 9025 10810 69 76 8 26.65 26.65 213.2 5681.78
92	174982 239 9025 10810 69 76 8 -1.0304395615822 0.53509713732637 -0.89879956853321 1.8595049337357
93	175221 229 9025 10810 69 76 8 -1.9898442762245 11.352659974452 46.240250188083 394.76622978476
94	175450 228 9025 10810 69 76 8 33.260087998079 34.290385603982 270.13596780846 9123.0766195668
95	175678 227 9025 10810 69 76 8 236.32962532046 406.36661460405 2533.1190889189 827507.00724321
96	175905 148 9025 10810 69 76 8 26.65 26.65 213.2 5681.78
97	176053 238 9025 10810 69 76 8 -1.0124665504554 0.60807391040726 0.60317193565425 2.0171679497017
98	176291 229 9025 10810 69 76 8 -2.0022073396528 11.504687010123 55.558744466578 522.07106020207
99	176520 226 9025 10810 69 76 8 32.852078206839 34.557279421198 270.57358903598 9153.6739380229
100	176746 235 9025 10810 69 76 8 763.40203078927 994.28257587294 7029.7610853263 6222813.9150263
101	176981 156 9025 10810 69 76 8 26.65 26.65 213.2 5681.78
102	177137 244 9025 10810 69 76 8 -1.7052012143596 0.89894919050671 -0.16016262774011 4.8098996584302
103	177381 226 9025 10810 69 76 8 0.92748372105037 14.076102975659 58.309010699929 578.9727609145
104	177607 236 9025 10810 69 76 8 19.188816087927 27.283988398317 196.83698161092 4905.8964791355
105	177843 236 9025 10810 69 76 8 158.54811708339 217.21933982837 1476.1176583041 275756.0840405
106	178079 156 9025 10810 69 76 8 26.65 29.95 216.5 5868.56
107	178235 237 9025 10810 69 76 8 -0.58673541177996 2.1666289053974 9.352114517791 18.426480104221
108	178472 236 9025 10810 69 76 8 0.38060956020225 17.164374349273 81.882788830775 1051.9782129123
109	178708 235 9025 10810 69 76 8 32.45609058839 33.164837358787 263.63074020603 8688.0512734845
110	178943 234 9025 10810 69 76 8 684.3360070464 896.62863817542 6332.0929426345 5050843.5732322
111	179177 156 9025 10810 69 76 8 29.95 29.95 239.6 7176.02
112	179333 249 9025 10810 69 76 8 -0.50000944174826 0.5305550355115 -0.21575375838438 0.71724288114741
113	179582 236 9025 10810 69 76 8 1.9230067315877 10.234863508119 46.426427743641 315.96942742429
114	179818 236 9025 10810 69 76 8 4.0986759745978 13.035126611057 62.769898719577 570.92953772066
115	180054 238 9025 10810 69 76 8 -6.1652033447641 2.3789950596984 2.3051638822742 67.698971680087
116	180292 214 9025 10810 69 76 8 0.973 6.659378701094 34.342778535433 189.27380806052
117	180506 235 9025 10810 69 76 8 22.096948734393 31.061884559282 234.38957986341 6930.3994065941
118	180741 235 9025 10810 69 76 8 644.74906097416 868.99832144662 6052.9822946169 4622945.4491648
119	180976 156 9025 10810 69 76 8 26.65 26.65 213.2 5681.78
120	181132 249 9025 10810 69 76 8 -6.6438659053233 0.49235485697864 -8.4997800353178 46.952375949792
121	181381 217 9025 10810 69 76 8 0.66981720267521 9.0627252639619 30.328107063248 177.83413185637
122	181598 235 9025 10810 69 76 8 592.50816164634 797.17925005936 5557.8708724437 3897036.5727364
123	181833 156 9025 10810 69 76 8 26.65 29.95 226.4 6428.9
124	181989 232 9025 10810 69 76 8 29.378578736164 32.26715426061 253.62783920862 8047.5970432609
125	182221 249 9025 10810 69 76 8 -2.8346858731292 0.83612312446348 -2.1723007555174 9.3643747255581
126	182470 226 9025 10810 69 76 8 0.973 12.272103157633 46.075451604733 369.68905059895
127	182696 231 9025 10810 69 76 8 29.081536001822 30.21245335788 234.8835417709 6897.3674845556
128	182927 253 9025 10810 69 76 8 -0.75482737476705 0.57883619942004 0.054481792612933 1.2562383997121
129	183180 237 9025 10810 69 76 8 -0.4721158212639 9.3296682774912 39.472044983084 261.73903553321
130	183417 235 9025 10810 69 76 8 206.40936857315 357.46471160607 2201.2493836469 625193.11697427
131	183652 156 9025 10810 69 76 8 26.65 26.65 213.2 5681.78
132	183808 235 9025 10810 69 76 8 542.82231729435 763.57351348635 5222.7550292303 3450975.8516247
133	184043 156 9025 10810 69 76 8 26.65 26.65 213.2 5681.78
134	184199 236 9025 10810 69 76 8 16.401499638533 29.165178028158 180.22052106108 4216.5877545799
135	184435 236 9025 10810 69 76 8 500.06731555615 721.38351991803 4889.2993838447 3029803.7471086
136	184671 156 9025 10810 69 76 8 26.65 26.65 213.2 5681.78
137	184827 236 9025 10810 69 76 8 1.2797179236077 2.4891376015148 14.877114279685 29.090807139284
138	185063 236 9025 10810 69 76 8 7.9266753271273 19.636684852211 108.41317650731 1594.9520269792
139	185299 234 9025 10810 69 76 8 30.35450231061 32.483587744522 252.62728678429 7981.7316585553
140	185533 236 9025 10810 69 76 8 445.44121475892 653.99748631167 4395.8183414427 2452786.5503459
141	185769 156 9025 10810 69 76 8 26.65 26.65 213.2 5681.78
142	185925 245 9025 10810 69 76 8 -1.4521077725011 1.1074186611997 -0.39157127515007 4.2004418346065
143	186170 227 9025 10810 69 76 8 0.20561481989089 14.126538090513 48.319911324715 436.90015025144
144	186397 236 9025 10810 69 76 8 30.505826291118 32.785920322634 252.94629818571 8001.3968017842
145	186633 245 9025 10810 69 76 8 -1.6313264145072 1.0711776910382 -0.084648807770591 6.1168972170722
146	186878 228 9025 10810 69 76 8 -1.0268169451258 14.411031897636 52.327737549483 568.70487414908
147	187106 235 9025 10810 69 76 8 29.435034440656 30.312817884085 237.99130599341 7080.6867675454
148	187341 236 9025 10810 69 76 8 149.23571045664 168.31129183278 1276.9046263164 204269.088909
149	187577 156 9025 10810 69 76 8 29.95 29.95 239.6 7176.02
150	187733 250 9025 10810 69 76 8 -0.75474680372281 0.51011812814977 -0.08225976722315 1.0130344103927
151	187983 237 9025 10810 69 76 8 -0.45493551822862 8.761226244767 39.361241771613 248.15418272568
152	188220 239 9025 10810 69 76 8 0.028856489584664 5.737122816476 19.104437865731 78.228797271521
153	188459 242 9025 10810 69 76 8 -3.6345076037925 1.7183022518293 0.010888877144073 23.712345202521
154	188701 196 9025 10810 69 76 8 0.973 3.7800079325589 13.991913755127 31.943671263519
155	188897 236 9025 10810 69 76 8 141.71591577755 160.09180660887 1191.4125981562 177844.54466401
156	189133 156 9025 10810 69 76 8 29.95 29.95 239.6 7176.02
157	189289 235 9025 10810 69 76 8 183.13182486642 320.17542630715 1964.4309583696 498589.62939301
158	189524 156 9025 10810 69 76 8 26.65 26.65 213.2 5681.78
159	189680 240 9025 10810 69 76 8 0.015567710438828 6.1537174375534 18.980053018548 81.923568108637
160	189920 236 9025 10810 69 76 8 137.60942968432 202.26881960172 1334.0141003845 225888.74069066
161	190156 156 9025 10810 69 76 8 26.65 26.65 213.2 5681.78
162	190312 241 9025 10810 69 76 8 -5.3996250250708 2.0436251553474 0.071319246675237 38.170525441886
163	190553 205 9025 10810 69 76 8 0.973 3.990037861251 14.971850483948 36.232910516997
164	190758 236 9025 10810 69 76 8 14.435245596355 26.701534284008 163.74513572473 3481.3419510809
165	190994 235 9025 10810 69 76 8 158.20369122518 285.83107323734 1737.1225258442 391036.73198478
166	191229 156 9025 10810 69 76 8 26.65 26.65 213.2 5681.78
167	191385 237 9025 10810 69 76 8 0.15962490940777 2.2916441125264 12.425913597061 22.331779364736
168	191622 236 9025 10810 69 76 8 2.6395466970613 17.602987441298 87.901012890594 1113.6585085823
169	191858 235 9025 10810 69 76 8 6.3564635607901 12.703361997451 71.063455106956 669.22641724105
170	192093 236 9025 10810 69 76 8 128.34421533035 149.82249833418 1097.6939596696 150923.88630744
171	192329 156 9025 10810 69 76 8 29.95 29.95 239.6 7176.02
172	192485 238 9025 10810 69 76 8 -6.2992968078939 2.145000025921 0.70019707661432 57.211252758979
173	192723 215 9025 10810 69 76 8 0.973 6.5950338359442 32.026619005575 167.12276453742
174	192938 235 9025 10810 69 76 8 14.362893040287 24.535299810353 152.16268182251 2986.9969232356
175	193173 238 9025 10810 69 76 8 -0.98446157641598 2.4688190882443 10.428947039627 21.349563536355
176	193411 223 9025 10810 69 76 8 0.973 15.853620195204 75.238601664496 857.59450288993
177	193634 237 9025 10810 69 76 8 0.43261914688795 6.7893103271691 23.527575694772 104.93569806991
178	193871 241 9025 10810 69 76 8 -7.3770706089341 2.3532746295677 -10.383092171909 109.18193201268
179	194112 206 9025 10810 69 76 8 0.973 5.3169103659996 16.127405993381 49.39520750499
180	194318 235 9025 10810 69 76 8 62.00460961999 152.60221715992 935.00705300803 115392.0122744
181	194553 156 9025 10810 69 76 8 26.65 29.95 226.4 6428.9
182	194709 224 9025 10810 69 76 8 30.1 178.69571376063 924.81327452209 125960.72683018
183	194933 156 9025 10810 69 76 8 26.65 26.65 213.2 5681.78
184	195089 236 9025 10810 69 76 8 4.8474076164236 27.078964021959 103.38548301725 1709.5405877618
185	195325 240 9025 10810 69 76 8 -7.8381844945904 2.4179939134046 -19.116734142667 204.41811638624
186	195565 194 9025 10810 69 76 8 0.973 8.0249619867346 29.426163028842 175.08146020267
187	195759 236 9025 10810 69 76 8 13.700858201904 30.465583651391 162.29657196254 3651.938397743
188	195995 184 9272 10810 70 76 7 30.1 131.20785936196 568.91269928783 56466.438926348
189	196179 137 9272 10810 70 76 7 29.95 29.95 209.65 6279.0175
190	196316 216 9272 10810 70 76 7 -5.5788507681915 0.64947011531331 -16.115255334175 77.16662803291
191	196532 155 9272 10810 70 76 7 0.973 9.960371486903 16.356666254547 106.28750882252
192	196687 156 9523 10810 71 76 6 30.1 112.67968087542 414.70284856628 34841.541833049
193	196843 118 9523 10810 71 76 6 29.95 29.95 179.7 5382.015
194	196961 177 9523 10810 71 76 6 8.4833476509935 32.99565512324 109.59120701295 2431.3477174404
195	197138 127 9778 10810 72 76 5 30.1 109.47174311713 312.82233784339 24455.79921722
196	197265 99 9778 10810 72 76 5 26.65 29.95 139.85 3924.6725
197	197364 153 9778 10810 72 76 5 -7.9383589241184 -2.1530780230554 -24.512307472246 144.87751400713
198	197517 99 9778 10810 72 76 5 0.973 0.973 4.865 4.733645
199	197616 148 9778 10810 72 76 5 10.37672617298 28.992686648416 92.956407048399 1966.4285122369
200	197764 123 10033 10810 73 76 4 -6.671162691901 -2.4039171209122 -18.615960475435 96.26495529734
201	197887 80 10033 10810 73 76 4 0.973 0.973 3.892 3.786916
202	197967 119 10033 10810 73 76 4 19.648626416658 28.76352867354 99.020369533792 2500.4088758194
203	198086 68 10288 10810 74 76 3 30.1 59.916959166517 120.11695916652 5402.0619957621
204	198154 60 10288 10810 74 76 3 29.95 29.95 89.85 2691.0075
205	198214 92 10288 10810 74 76 3 -5.2488472563023 1.6699956471834 -7.4449066096985 45.28566424911
206	198306 70 10288 10810 74 76 3 0.973 16.272341709143 18.218341709143 266.6825626991
207	198376 38 10547 10810 75 76 2 30.1 30.1 60.2 1812.02
208	198414 40 10547 10810 75 76 2 29.95 29.95 59.9 1794.005
209	198454 60 10547 10810 75 76 2 23.937462288566 29.816959166517 53.754421455083 1462.0531547543
210	198514 19 10810 10810 76 76 1 30.1 30.1 30.1 906.00999999999
211	198533 20 10810 10810 76 76 1 29.95 29.95 29.95 897.0025
212	198553 31 10810 10810 76 76 1 -5.8794968779512 -5.8794968779512 -5.8794968779512 34.568483537838
213	198584 20 10810 10810 76 76 1 0.973 0.973 0.973 0.946729
214	198604 30 10810 10810 76 76 1 27.486130811631 27.486130811631 27.486130811631 755.48738699411
vector 215 HighwayScenario1.node[42].veinsmobility acceleration ETV
vector 216 HighwayScenario1.node[42].veinsmobility co2emission ETV
vector 217 HighwayScenario1.node[43].veinsmobility speed ETV
vector 218 HighwayScenario1.node[44].veinsmobility posx ETV
vector 219 HighwayScenario1.node[44].veinsmobility posy ETV
vector 220 HighwayScenario1.node[43].veinsmobility acceleration ETV
vector 221 HighwayScenario1.node[43].veinsmobility co2emission ETV
vector 222 HighwayScenario1.node[44].veinsmobility speed ETV
vector 223 HighwayScenario1.node[44].veinsmobility acceleration ETV
vector 224 HighwayScenario1.node[44].veinsmobility co2emission ETV
vector 225 HighwayScenario1.node[45].veinsmobility posx ETV
vector 226 HighwayScenario1.node[45].veinsmobility posy ETV
vector 227 HighwayScenario1.node[45].veinsmobility speed ETV
vector 228 HighwayScenario1.node[45].veinsmobility acceleration ETV
vector 229 HighwayScenario1.node[45].veinsmobility co2emission ETV
vector 230 HighwayScenario1.node[46].veinsmobility posx ETV
vector 231 HighwayScenario1.node[46].veinsmobility posy ETV
vector 232 HighwayScenario1.node[47].veinsmobility posx ETV
vector 233 HighwayScenario1.node[47].veinsmobility posy ETV
vector 234 HighwayScenario1.node[46].veinsmobility speed ETV
0	199918 252 11069 13171 77 85 9 1969.3004662771 1998.8166865227 17901.946797815 35610011.864471
1	200170 162 11069 13171 77 85 9 29.95 29.95 269.55 8073.0225
2	200332 227 11069 13171 77 85 9 0 8.7756307975975 29.516220245531 204.22653531517
3	200559 252 11069 13171 77 85 9 1794.5274520685 1798.0423351645 16163.734636679 29029614.248089
4	200811 162 11069 13171 77 85 9 29.95 29.95 269.55 8073.0225
5	200973 244 11069 13171 77 85 9 -6.9101613878779 2.1870022302028 -1.9804896722781 63.750951024531
6	201217 201 11069 13171 77 85 9 0.973 5.2872529831504 21.171915546804 75.106642954353
7	201418 251 11069 13171 77 85 9 1604.4340790787 1608.5202900371 14462.171498303 23239407.723749
8	201669 162 11069 13171 77 85 9 29.95 29.95 269.55 8073.0225
9	201831 186 11069 13171 77 85 9 0 2.2487371458556 3.5148830960106 6.5001972562533
10	202017 260 11069 13171 77 85 9 1237.6131972309 1247.0660284836 11183.680528041 13897345.079766
11	202277 171 11069 13171 77 85 9 29.95 29.95 269.55 8073.0225
12	202448 229 11069 13171 77 85 9 -1.1780055536224 2.2487371458556 -0.16221325794549 7.560006726873
13	202677 181 11069 13171 77 85 9 0.973 2.4382228813279 10.222222881328 13.518762819031
14	202858 209 11069 13171 77 85 9 0 2.4993175364216 4.0862109583935 7.6313464431858
15	203067 229 11069 13171 77 85 9 -1.3642896784838 2.4993175364216 3.4694469519536e-018 8.8911415936949
16	203296 181 11069 13171 77 85 9 0.973 2.7374370598171 10.521437059817 15.06739365646
17	203477 223 11069 13171 77 85 9 0 3.6870922654634 9.4528312526775 26.569512614891
18	203700 261 11069 13171 77 85 9 953.75683851103 965.24819352424 8622.2923795778 8260647.7945756
19	203961 171 11069 13171 77 85 9 29.95 29.95 269.55 8073.0225
20	204132 244 11069 13171 77 85 9 -2.0300831536861 2.2899468516698 8.673617379884e-017 12.642226394461
21	204376 200 11069 13171 77 85 9 0.973 2.533984172777 11.968315809986 19.512682988228
22	204576 222 11069 13171 77 85 9 0 5.2040732456953 11.565107096389 41.400265338076
23	204798 260 11069 13171 77 85 9 637.01061800853 642.06301163163 5742.4540736943 3663995.3088891
24	205058 171 11069 13171 77 85 9 29.95 29.95 269.55 8073.0225
25	205229 240 11069 13171 77 85 9 -3.9339459534257 1.939538528386 0.037503896531676 25.589655675744
26	205469 201 11069 13171 77 85 9 0.973 3.8065978868944 14.033774224112 30.428499283664
27	205670 260 11069 13171 77 85 9 290.58035918857 302.57675281898 2658.5478553635 785570.23526729
28	205930 171 11069 13171 77 85 9 29.95 29.95 269.55 8073.0225
29	206101 224 11069 13171 77 85 9 0 3.3294412624673 5.7247242600032 13.258086345717
30	206325 242 11069 13171 77 85 9 -3.0652678707587 2.0653775145183 -2.7333664947244 22.397544276544
31	206567 201 11069 13171 77 85 9 0.973 2.9312710174292 11.43782646514 17.931860003188
32	206768 223 11069 13171 77 85 9 0 6.040644198365 11.999156057619 53.964002809026
33	206991 260 11069 13171 77 85 9 237.46412179609 241.7486635474 2152.4385961266 514795.80214146
34	207251 171 11069 13171 77 85 9 29.95 29.95 269.55 8073.0225
35	207422 243 11069 13171 77 85 9 -5.8671164003475 2.3936549026985 -0.047216552942687 46.908251300836
36	207665 221 11069 13171 77 85 9 0.973 4.9064342129954 15.935596042469 42.531673014224
37	207886 261 11069 13171 77 85 9 2389.1230025788 2785.1060102103 23283.171729223 60380849.49614
38	208147 171 11069 13171 77 85 9 26.65 26.65 239.85 6392.0025
39	208318 225 11069 13171 77 85 9 0 1.8772755441023 4.3261760184379 5.649682748728
40	208543 261 11069 13171 77 85 9 178.05918645637 184.18092667422 1612.6092959149 288977.77553758
41	208804 171 11069 13171 77 85 9 29.95 29.95 269.55 8073.0225
42	208975 245 11069 13171 77 85 9 -3.7086153393383 1.8772755441023 -4.4943223077115 19.104469884245
43	209220 181 11069 13171 77 85 9 0.973 2.0504943307385 9.8344943307385 11.778359000391
44	209401 260 11069 13171 77 85 9 49.189161387272 49.895921236835 445.64703008626 22067.382605616
45	209661 259 11069 13171 77 85 9 234.44073469162 342.70112985089 2518.1893936808 715900.17846307
46	209920 171 11069 13171 77 85 9 26.65 26.65 239.85 6392.0025
47	210091 276 11069 13171 77 85 9 -0.54443070711568 0.70675984956324 0.24945452669635 1.507380211999
48	210367 261 11069 13171 77 85 9 8.0235218095504 23.491107684819 135.59516673894 2271.13656888
49	210628 224 11069 13171 77 85 9 0 5.3123612803756 11.434101498227 46.566458376318
50	210852 261 11069 13171 77 85 9 626.00811051193 694.79607993155 5816.4468160524 3763565.394489
51	211113 171 11069 13171 77 85 9 26.65 29.95 249.75 6952.3425
52	211284 241 11069 13171 77 85 9 -2.038801725257 2.1067833830602 3.1219675531611 13.741320520837
53	211525 221 11069 13171 77 85 9 0.973 3.4128367076911 14.558583761977 30.662125544952
54	211746 259 11069 13171 77 85 9 7.0726286553658 22.298209614888 130.55860477417 2111.276651511
55	212005 261 11069 13171 77 85 9 1340.9844402438 1580.5243680413 13146.970251028 19258506.124954
56	212266 171 11069 13171 77 85 9 26.65 26.65 239.85 6392.0025
57	212437 261 11069 13171 77 85 9 1.2801451623091 2.4596583889797 17.051995325601 33.519285400194
58	212698 261 11069 13171 77 85 9 4.1437287079417 15.252055321765 80.335146332667 818.25222999886
59	212959 262 11069 13171 77 85 9 0.089492264866117 26.002914263074 94.790883682698 1711.3960501926
60	213221 261 11069 13171 77 85 9 1301.0555236123 1540.8070066331 12787.856380183 18224012.717525
61	213482 171 11069 13171 77 85 9 26.65 26.65 239.85 6392.0025
62	213653 264 11069 13171 77 85 9 -2.5958288739765 4.4777929742122 23.84936964034 120.17036411187
63	213917 241 11069 13171 77 85 9 0.973 31.368562306816 113.3438022754 2459.663402581
64	214158 258 11069 13171 77 85 9 29.521258259809 30.526065187331 269.72065424432 8084.2295539135
65	214416 273 11069 13171 77 85 9 -1.0048069275217 0.97735111456132 0.72349822439719 3.6732609653657
66	214689 252 11069 13171 77 85 9 0.97147110160012 12.400493024172 54.240902520367 481.85318941833
67	214941 261 11069 13171 77 85 9 29.409098027005 31.207912095935 269.37886144066 8065.9454471443
68	215202 271 11069 13171 77 85 9 -1.5055107254497 1.7988140689298 -0.2614606385298 9.0764604504412
69	215473 240 11069 13171 77 85 9 -0.61068030311512 18.95234673129 55.081987118904 686.96516236885
70	215713 260 11069 13171 77 85 9 1261.5878568819 1500.245422988 12424.403672077 17205138.531046
71	215973 171 11069 13171 77 85 9 26.65 26.65 239.85 6392.0025
72	216144 261 11069 13171 77 85 9 29.252844800834 30.609131345012 268.07057492074 7986.5844450371
73	216405 273 11069 13171 77 85 9 -0.93443987652006 1.3562865441781 -0.63416000810122 4.4820525748002
74	216678 254 11069 13171 77 85 9 -0.37547642495095 15.24090682568 43.629521116235 425.74564738751
75	216932 260 11069 13171 77 85 9 952.77626211201 1079.5496712701 9058.2247388467 9132296.9392087
76	217192 171 11069 13171 77 85 9 26.65 26.65 239.85 6392.0025
77	217363 259 11069 13171 77 85 9 621.66178189798 721.05069612335 5954.2503588876 3948858.7318992
78	217622 171 11069 13171 77 85 9 26.65 29.95 249.75 6952.3425
79	217793 260 11069 13171 77 85 9 8.3503945702992 25.195842263494 151.96925142156 2825.3827262128
80	218053 261 11069 13171 77 85 9 1203.2033028872 1457.3757663285 11990.327954776 16034280.254648
81	218314 171 11069 13171 77 85 9 26.65 26.65 239.85 6392.0025
82	218485 260 11069 13171 77 85 9 1.404966438422 2.4678044256871 18.840064530086 40.37424029214
83	218745 259 11069 13171 77 85 9 5.5806689232368 17.008140095381 99.02617916089 1213.2483029753
84	219004 260 11069 13171 77 85 9 4.972656939802 21.871414637584 121.26032886295 1897.487442654
85	219264 259 11069 13171 77 85 9 1132.5255831502 1403.6083312534 11412.769253663 14541457.632133
86	219523 171 11069 13171 77 85 9 26.65 26.65 239.85 6392.0025
87	219694 261 11069 13171 77 85 9 1.5101505431812 2.3999236326199 18.408908240963 38.240202257228
88	219955 261 11069 13171 77 85 9 3.1710199202537 14.223759007275 79.660467034919 813.12430327474
89	220216 261 11069 13171 77 85 9 30.047807771788 33.636657749072 284.56992042574 9011.595694892
90	220477 260 11069 13171 77 85 9 1087.679312862 1360.0480358016 11010.06500314 13538602.765337
91	220737 171 11069 13171 77 85 9 26.65 26.65 239.85 6392.0025
92	220908 274 11069 13171 77 85 9 -1.4971962296112 2.0303287669734 -4.311221590022 10.472568127744
93	221182 243 11069 13171 77 85 9 -2.441939170138 21.402877221278 28.571504483713 491.17432418937
94	221425 259 11069 13171 77 85 9 33.119274943227 34.445176296304 304.20202304645 10283.734703423
95	221684 260 11069 13171 77 85 9 433.16660693139 644.31229323539 4863.2703780076 2670491.7668651
96	221944 171 11069 13171 77 85 9 26.65 26.65 239.85 6392.0025
97	222115 275 11069 13171 77 85 9 -0.95805851102341 1.1355822335463 -1.1483776305538 4.1917680106629
98	222390 263 11069 13171 77 85 9 -1.5599321635268 15.973786049081 47.965280510227 540.08564969279
99	222653 260 11069 13171 77 85 9 33.366062240679 34.939628700151 306.17563197002 10417.795510815
100	222913 269 11069 13171 77 85 9 1027.0327709953 1289.1835645485 10419.873997883 12128121.646139
101	223182 180 11069 13171 77 85 9 26.65 29.95 246.45 6765.5625
102	223362 284 11069 13171 77 85 9 -0.77798503556773 1.5735664594716 -0.34817599568719 4.6814896476176
103	223646 272 11069 13171 77 85 9 0.035732892683594 19.985910411171 55.224176897799 675.65794777016
104	223918 268 11069 13171 77 85 9 24.024714515117 27.420199804814 236.33211922774 6218.5893902349
105	224186 269 11069 13171 77 85 9 221.31801580297 310.17030911532 2316.3972420251 603754.97642981
106	224455 180 11069 13171 77 85 9 26.65 26.65 239.85 6392.0025
107	224635 281 11069 13171 77 85 9 -2.510401585599 1.1617184086164 -1.6135594036032 8.938600586054
108	224916 250 11069 13171 77 85 9 0.92802045073327 10.85249686547 41.356118758175 288.11492219164
109	225166 269 11069 13171 77 85 9 32.27641565653 33.310612673964 295.05258283568 9673.6204913268
110	225435 270 11069 13171 77 85 9 918.72558690982 957.19849383395 8500.2065700805 8029212.0361407
111	225705 180 11069 13171 77 85 9 29.95 29.95 269.55 8073.0225
112	225885 284 11069 13171 77 85 9 -0.47377946582856 0.73121049354086 0.15159416012466 1.6165202238761
113	226169 270 11069 13171 77 85 9 2.0878597841907 11.841070762273 54.918508387481 440.94533715969
114	226439 270 11069 13171 77 85 9 5.3511473123912 19.405414712161 108.25770802451 1499.1326116155
115	226709 269 11069 13171 77 85 9 1.2283197842771 2.3551269099698 15.306738737563 27.27693024207
116	226978 269 11069 13171 77 85 9 2.9975146922863 11.606559276245 63.963679202289 536.54389403435
117	227247 274 11069 13171 77 85 9 0.011825247768401 16.849891734065 38.933174457747 409.63818292417
118	227521 270 11069 13171 77 85 9 898.37690018279 1046.4867052404 8755.8152705928 8537531.9913419
119	227791 180 11069 13171 77 85 9 26.65 26.65 239.85 6392.0025
120	227971 262 11069 13171 77 85 9 -8 1.878856565163 -21.636681200777 165.67945726916
121	228233 210 11069 13171 77 85 9 0.973 3.2701687426028 12.918688835949 24.303506790622
122	228443 270 11069 13171 77 85 9 827.39170341724 947.03379305537 8174.8916759714 7439950.9421357
123	228713 180 11069 13171 77 85 9 26.65 29.95 262.95 7699.4625
124	228893 268 11069 13171 77 85 9 15.89076017762 23.161860725938 169.46150123793 3237.1760770029
125	229161 278 11069 13171 77 85 9 -6.2167180102255 2.1502357071046 -8.0268825558816 77.930708511066
126	229439 230 11069 13171 77 85 9 0.973 13.055664842774 42.84441595068 358.28775206054
127	229669 269 11069 13171 77 85 9 1.619423390969 29.453948653308 126.17654069409 2807.722635865
128	229938 247 11069 13171 77 85 9 -8 2.228912182909 -23.678002301928 212.22541105282
129	230185 220 11069 13171 77 85 9 0.973 6.1199679581509 20.923142756344 77.201211259533
130	230405 269 11069 13171 77 85 9 386.62988963423 608.93543273317 4497.0110323731 2293756.7791682
131	230674 180 11069 13171 77 85 9 26.65 26.65 239.85 6392.0025
132	230854 270 11069 13171 77 85 9 795.44960407864 1011.1622877086 8206.8088890333 7527575.802344
133	231124 180 11069 13171 77 85 9 26.65 26.65 239.85 6392.0025
134	231304 269 11069 13171 77 85 9 24.762756902457 29.014312137098 247.0683000014 6802.90210544
135	231573 269 11069 13171 77 85 9 753.01361374186 978.35650124215 7860.4563383728 6914625.7116324
136	231842 180 11069 13171 77 85 9 26.65 26.65 239.85 6392.0025
137	232022 281 11069 13171 77 85 9 -3.0968730039507 0.84466212505622 -4.4024211257012 14.419568350016
138	232303 240 11069 13171 77 85 9 0.973 10.609568051904 38.567098293004 265.12282161725
139	232543 269 11069 13171 77 85 9 21.037695269544 32.627709644316 237.14823335379 6438.1738766345
140	232812 270 11069 13171 77 85 9 683.43252075233 915.18618773699 7230.5776942301 5861208.0702741
141	233082 180 11069 13171 77 85 9 26.65 29.95 262.95 7699.4625
142	233262 280 11069 13171 77 85 9 -4.0097810234397 1.2091076259368 -10.440540868497 40.350934215854
143	233542 219 11069 13171 77 85 9 0.973 10.64162164868 37.597876382172 302.66279344603
144	233761 269 11069 13171 77 85 9 21.17686566035 32.241447938066 248.4060708224 7019.0004819431
145	234030 279 11069 13171 77 85 9 -4.1726153349204 1.8863176617611 -8.5669105017144 38.61956604999
146	234309 230 11069 13171 77 85 9 0.973 13.840412373832 44.954693174919 431.97742715206
147	234539 268 11069 13171 77 85 9 16.11553510613 30.574683596904 247.86920209079 7039.878923815
148	234807 270 11069 13171 77 85 9 168.34014832237 172.18485648148 1535.1255632187 261853.74753923
149	235077 180 11069 13171 77 85 9 29.95 29.95 269.55 8073.0225
150	235257 283 11069 13171 77 85 9 -6.5160240894666 1.1396491562482 -13.319499334526 79.377513337071
151	235540 240 11069 13171 77 85 9 0.973 13.622758527179 41.271996211852 318.41754403252
152	235780 282 11069 13171 77 85 9 0.00099679976132004 3.7468138379782 7.5915219970894 19.083105743795
153	236062 283 11069 13171 77 85 9 -1.3724975408858 2.4095620380831 3.7179573483936 12.460681897721
154	236345 230 11069 13171 77 85 9 0.973 3.4713969088217 13.104952924179 24.550441039086
155	236575 268 11069 13171 77 85 9 160.6959687961 163.34064233817 1462.1320680534 237545.51249269
156	236843 180 11069 13171 77 85 9 29.95 29.95 269.55 8073.0225
157	237023 269 11069 13171 77 85 9 346.87696059116 574.15776755915 4153.0320484373 1964578.5969596
158	237292 180 11069 13171 77 85 9 26.65 26.65 239.85 6392.0025
159	237472 280 11069 13171 77 85 9 0.024208921582565 1.2967505799565 3.9414241220202 3.6890615985541
160	237752 270 11069 13171 77 85 9 208.67288479128 283.44714846483 2145.6516136082 516843.99609239
161	238022 180 11069 13171 77 85 9 26.65 26.65 239.85 6392.0025
162	238202 285 11069 13171 77 85 9 -0.72689654175064 1.2725416583739 0.69258839272454 3.6922219171437
163	238487 220 11069 13171 77 85 9 0.973 1.5704474474531 10.162779627474 11.933615964567
164	238707 268 11069 13171 77 85 9 24.986236748085 29.70221316357 252.26704371608 7086.5576640946
165	238975 270 11069 13171 77 85 9 310.36637304769 536.02077561264 3809.9779986741 1661370.9751128
166	239245 180 11069 13171 77 85 9 26.65 26.65 239.85 6392.0025
167	239425 278 11069 13171 77 85 9 -3.7695771651011 2.2111624336685 -1.7152975359223 26.01445093769
168	239703 239 11069 13171 77 85 9 0.973 20.144781436009 65.460651275117 822.44368266231
169	239942 268 11069 13171 77 85 9 4.1778372883677 17.246508222529 92.020771896087 1111.380810324
170	240210 268 11069 13171 77 85 9 151.87179102512 155.75671292329 1388.4489671872 214215.81421195
171	240478 180 11069 13171 77 85 9 26.65 29.95 266.25 7886.2425
172	240658 273 11069 13171 77 85 9 -2.2262279011896 2.3753338176175 10.842443032972 29.879445339823
173	240931 257 11069 13171 77 85 9 0.973 11.315549377038 52.212473050772 401.0629459887
174	241188 269 11069 13171 77 85 9 26.729187961149 30.032001566468 254.44837891243 7201.6670105997
175	241457 277 11069 13171 77 85 9 -1.8385533070213 2.1938881507958 4.2586765371194 18.013502190853
176	241734 249 11069 13171 77 85 9 0.973 18.295988146861 86.023659934676 1203.6128323498
177	241983 278 11069 13171 77 85 9 0.061421548154321 2.1641509309745 6.0490728291442 7.2663322972527
178	242261 283 11069 13171 77 85 9 -1.2837383486861 2.1027293828201 0.11485824002843 6.8813219449123
179	242544 219 11069 13171 77 85 9 0.973 2.3120353087821 10.739193238613 14.322121525009
180	242763 270 11069 13171 77 85 9 165.39009263724 234.86356433748 1816.0433939618 370239.94816733
181	243033 180 11069 13171 77 85 9 26.65 26.65 239.85 6392.0025
182	243213 270 11069 13171 77 85 9 192.39657196254 255.96244411302 1983.0464665811 440463.41533904
183	243483 180 11069 13171 77 85 9 26.65 26.65 239.85 6392.0025
184	243663 269 11069 13171 77 85 9 4.5960972097932 14.354645118099 81.402473370318 810.51694981334
185	243932 272 11069 13171 77 85 9 -4.088877549418 1.9038176373579 -0.85887380724069 47.245661143513
186	244204 239 11069 13171 77 85 9 0.973 7.4959034715459 34.524354259247 181.4137224938
187	244443 270 11069 13171 77 85 9 4.6955531457901 13.992128889763 77.558001040249 747.42202440627
188	244713 269 11069 13171 77 85 9 139.69120701295 148.14716032937 1310.7170905945 190941.13192187
189	244982 180 11069 13171 77 85 9 29.95 29.95 269.55 8073.0225
190	245162 274 11069 13171 77 85 9 -5.5207615638514 2.2838108136784 0.29127068785956 58.455896040013
191	245436 249 11069 13171 77 85 9 0.973 8.2672597408956 36.320287263549 206.8917299973
192	245685 268 11069 13171 77 85 9 123.0564070484 141.6199005836 1223.2721395591 166526.11196633
193	245953 180 11069 13171 77 85 9 26.65 29.95 262.95 7699.4625
194	246133 276 11069 13171 77 85 9 0.25611852975408 4.5808716324764 10.861929665775 29.212119709956
195	246409 268 11069 13171 77 85 9 129.12036953379 215.74155119847 1622.5709151432 299122.75528249
196	246677 180 11069 13171 77 85 9 26.65 26.65 239.85 6392.0025
197	246857 282 11069 13171 77 85 9 -3.9487623581971 2.1498578196042 -6.0773713016352 35.823731684245
198	247139 219 11069 13171 77 85 9 0.973 2.4739251120913 10.853521449351 14.975885129055
199	247358 273 11069 13171 77 85 9 0.30722113863786 7.7860321762371 22.774597860981 108.83430878827
200	247631 276 11069 13171 77 85 9 -3.0541628670087 2.352448044403 -6.1656218472029 34.917213794845
201	247907 220 11069 13171 77 85 9 0.973 3.7074856651629 12.783307253392 24.624810196968
202	248127 265 11069 13171 77 85 9 5.3750923741206 18.032087099537 95.990857515902 1187.0350608251
203	248392 270 11069 13171 77 85 9 83.854421455083 198.99584061136 1389.9797586587 227264.84121339
204	248662 180 11069 13171 77 85 9 26.65 26.65 239.85 6392.0025
205	248842 280 11069 13171 77 85 9 -4.3398725483454 2.1519359912424 -10.278950565435 57.907867833575
206	249122 218 11069 13171 77 85 9 0.973 5.41614071447 18.992657885254 65.70092361854
207	249340 270 11069 13171 77 85 9 57.586130811631 134.15192428977 1011.5428700589 119623.47276154
208	249610 180 11069 13171 77 85 9 29.95 29.95 269.55 8073.0225
209	249790 270 11069 13171 77 85 9 6.9221771833215 24.363762592485 123.00867751713 2069.0643178179
210	250060 258 11069 13171 77 85 9 30.1 182.51272517076 1081.8158649069 153683.91395522
211	250318 180 11069 13171 77 85 9 26.65 29.95 243.15 6578.7825
212	250498 280 11069 13171 77 85 9 -4.3858043937596 0.92752470586161 -16.07020392771 67.28394511432
213	250778 210 11069 13171 77 85 9 0.973 6.1243991237241 17.940134971797 61.234288545295
214	250988 270 11069 13171 77 85 9 0.80216480234072 22.214071740194 80.639306843618 1372.3531616314
215	251258 265 11069 13171 77 85 9 -8 1.8703152323724 -23.412617446151 173.9027858224
216	251523 209 11069 13171 77 85 9 0.973 2.688168380154 12.689394814984 21.837376824753
217	251732 267 11069 13171 77 85 9 7.3792478356936 27.1405669375 159.79197300646 3374.7500357902
218	251999 217 11328 13171 78 85 8 30.1 163.33260014535 774.51416067184 94702.943441048
219	252216 160 11328 13171 78 85 8 26.65 29.95 223.1 6242.12
220	252376 246 11328 13171 78 85 8 -5.3912896440519 1.65770331776 -18.103615784046 89.086522395776
221	252622 180 11328 13171 78 85 8 0.973 15.108934550784 23.82950163274 242.26947024184
222	252802 209 11595 13171 79 85 7 9.7677839802107 30.54105063121 143.00038412557 3332.11375734
223	253011 187 11862 13171 80 85 6 -6.4978951874579 0.045474633164936 -20.773266650999 106.40883801758
224	253198 130 11862 13171 80 85 6 0.973 4.4449324045421 9.3099324045421 24.491069080948
225	253328 128 12129 13171 81 85 5 30.1 109.14069802768 322.95250020476 25883.537259818
226	253456 100 12129 13171 81 85 5 29.95 29.95 149.75 4485.0125
227	253556 120 12394 13171 82 85 4 11.626887870864 33.260968775491 90.667585898543 2321.3683706476
228	253676 79 12659 13171 83 85 3 -8 -6.3711041493977 -21.634080904627 157.34179942948
229	253755 60 12659 13171 83 85 3 0.973 0.973 2.919 2.840187
230	253815 38 12922 13171 84 85 2 30.1 30.1 60.2 1812.02
231	253853 40 12922 13171 84 85 2 29.95 29.95 59.9 1794.005
232	253893 19 13171 13171 85 85 1 30.1 30.1 30.1 906.00999999999
233	253912 20 13171 13171 85 85 1 29.95 29.95 29.95 897.0025
234	253932 30 13171 13171 85 85 1 30.800618147053 30.800618147053 30.800618147053 948.67807824058
vector 235 HighwayScenario1.node[48].veinsmobility posx ETV
vector 236 HighwayScenario1.node[48].veinsmobility posy ETV
vector 237 HighwayScenario1.node[46].veinsmobility acceleration ETV
vector 238 HighwayScenario1.node[46].veinsmobility co2emission ETV
vector 239 HighwayScenario1.node[47].veinsmobility speed ETV
vector 240 HighwayScenario1.node[49].veinsmobility posx ETV
vector 241 HighwayScenario1.node[49].veinsmobility posy ETV
vector 242 HighwayScenario1.node[47].veinsmobility acceleration ETV
vector 243 HighwayScenario1.node[47].veinsmobility co2emission ETV
vector 244 HighwayScenario1.node[48].veinsmobility speed ETV
vector 245 HighwayScenario1.node[50].veinsmobility posx ETV
vector 246 HighwayScenario1.node[50].veinsmobility posy ETV
vector 247 HighwayScenario1.node[48].veinsmobility acceleration ETV
vector 248 HighwayScenario1.node[48].veinsmobility co2emission ETV
vector 249 HighwayScenario1.node[49].veinsmobility speed ETV
vector 250 HighwayScenario1.node[51].veinsmobility posx ETV
vector 251 HighwayScenario1.node[51].veinsmobility posy ETV
vector 252 HighwayScenario1.node[49].veinsmobility acceleration ETV
vector 253 HighwayScenario1.node[49].veinsmobility co2emission ETV
vector 254 HighwayScenario1.node[50].veinsmobility speed ETV
vector 255 HighwayScenario1.node[50].veinsmobility acceleration ETV
vector 256 HighwayScenario1.node[50].veinsmobility co2emission ETV
vector 257 HighwayScenario1.node[51].veinsmobility speed ETV
vector 258 HighwayScenario1.node[52].veinsmobility posx ETV
vector 259 HighwayScenario1.node[52].veinsmobility posy ETV
vector 260 HighwayScenario1.node[51].veinsmobility acceleration ETV
vector 261 HighwayScenario1.node[51].veinsmobility co2emission ETV
vector 262 HighwayScenario1.node[53].veinsmobility posx ETV
vector 263 HighwayScenario1.node[53].veinsmobility posy ETV
vector 264 HighwayScenario1.node[52].veinsmobility speed ETV
vector 265 HighwayScenario1.node[54].veinsmobility posx ETV
vector 266 HighwayScenario1.node[54].veinsmobility posy ETV
vector 267 HighwayScenario1.node[52].veinsmobility acceleration ETV
vector 268 HighwayScenario1.node[52].veinsmobility co2emission ETV
vector 269 HighwayScenario1.node[53].veinsmobility speed ETV
vector 270 HighwayScenario1.node[53].veinsmobility acceleration ETV
vector 271 HighwayScenario1.node[53].veinsmobility co2emission ETV
vector 272 HighwayScenario1.node[54].veinsmobility speed ETV
vector 273 HighwayScenario1.node[55].veinsmobility posx ETV
vector 274 HighwayScenario1.node[55].veinsmobility posy ETV
vector 275 HighwayScenario1.node[54].veinsmobility acceleration ETV
vector 276 HighwayScenario1.node[54].veinsmobility co2emission ETV
vector 277 HighwayScenario1.node[55].veinsmobility speed ETV
vector 278 HighwayScenario1.node[55].veinsmobility acceleration ETV
vector 279 HighwayScenario1.node[55].veinsmobility co2emission ETV
vector 280 HighwayScenario1.node[56].veinsmobility posx ETV
vector 281 HighwayScenario1.node[56].veinsmobility posy ETV
vector 282 HighwayScenario1.node[57].veinsmobility posx ETV
vector 283 HighwayScenario1.node[57].veinsmobility posy ETV
vector 284 HighwayScenario1.node[56].veinsmobility speed ETV
vector 285 HighwayScenario1.node[58].veinsmobility posx ETV
vector 286 HighwayScenario1.node[58].veinsmobility posy ETV
vector 287 HighwayScenario1.node[56].veinsmobility acceleration ETV
vector 288 HighwayScenario1.node[56].veinsmobility co2emission ETV
vector 289 HighwayScenario1.node[57].veinsmobility speed ETV
0	257493 421 13414 16766 86 100 15 1998.8166865227 2008.2433082348 30058.459679788 60234288.657377
1	257914 271 13414 16766 86 100 15 29.95 29.95 449.25 13455.0375
2	258185 313 13414 16766 86 100 15 0 4.0555713823414 9.4266217121144 24.874501462748
3	258498 421 13414 16766 86 100 15 1798.0423351645 1814.8884191711 27067.754402545 48844521.643357
4	258919 271 13414 16766 86 100 15 29.95 29.95 449.25 13455.0375
5	259190 348 13414 16766 86 100 15 -2.9933099409527 2.0459700532956 -4.1633363423443e-017 24.124910644811
6	259538 311 13414 16766 86 100 15 0.973 3.3115190658492 19.265441209166 31.198302952769
7	259849 421 13414 16766 86 100 15 1608.5202900371 1628.4415769003 24279.454558588 39300137.154618
8	260270 271 13414 16766 86 100 15 29.95 29.95 449.25 13455.0375
9	260541 372 13414 16766 86 100 15 0 4.5299643807812 17.545949235587 49.002125739053
10	260913 434 13414 16766 86 100 15 1247.0660284836 1265.265553381 18854.222339852 23699378.368415
11	261347 286 13414 16766 86 100 15 29.95 29.95 449.25 13455.0375
12	261633 407 13414 16766 86 100 15 -2.3838925800699 1.8252332741395 0.69986522895202 24.721869482775
13	262040 355 13414 16766 86 100 15 0.973 3.0949610583591 21.216410378253 36.47129992801
14	262395 372 13414 16766 86 100 15 0 4.5340301358374 19.921286863219 70.409911454997
15	262767 411 13414 16766 86 100 15 -3.5123280838982 2.3656592913903 2.3592239273285e-016 44.818335892033
16	263178 345 13414 16766 86 100 15 0.973 3.7067136245633 23.417618018027 50.223655517731
17	263523 357 13414 16766 86 100 15 0 5.2791550728873 18.199524897415 70.104881873087
18	263880 436 13414 16766 86 100 15 965.32194560742 978.72354902397 14578.494022502 14169255.811246
19	264316 286 13414 16766 86 100 15 29.95 29.95 449.25 13455.0375
20	264602 392 13414 16766 86 100 15 -5.1333160051851 2.4733016459504 -7.632783294298e-017 57.256982627942
21	264994 335 13414 16766 86 100 15 0.973 3.716604550767 23.718674923132 50.726920112325
22	265329 347 13414 16766 86 100 15 0 5.2978206135351 13.401603416544 48.608151328732
23	265676 435 13414 16766 86 100 15 642.73534226853 653.72582687992 9730.4887067168 6312519.1081378
24	266111 286 13414 16766 86 100 15 29.95 29.95 449.25 13455.0375
25	266397 396 13414 16766 86 100 15 -4.99003977673 2.2545323157101 -0.073752083185557 44.840585668849
26	266793 346 13414 16766 86 100 15 0.973 3.8859870038316 21.840628906701 42.333695117856
27	267139 434 13414 16766 86 100 15 302.57951524619 421.64196324463 5052.0426183025 1723800.6731444
28	267573 286 13414 16766 86 100 15 29.95 29.95 449.25 13455.0375
29	267859 361 13414 16766 86 100 15 0 4.5345586226904 12.919047586757 38.196792380854
30	268220 399 13414 16766 86 100 15 -2.1881731891673 2.2921380386106 1.2562323384642 22.392654824344
31	268619 335 13414 16766 86 100 15 0.973 3.8422746382935 20.347215953944 37.068304078314
[...]
275	1645461 4642 24322 43721 132 277 146 -5.0438297064146 2.4360586983387 -0.26921862449218 391.36347401372
272	1650103 4507 24322 43721 132 277 146 24.395322463239 31.599583618356 4151.7859526885 118579.06105161
266	1654610 3066 24322 43721 132 277 146 29.95 29.95 4372.7 130962.365
265	1657676 4505 24322 43721 132 277 146 854.69436489252 4975.5445891204 430677.89748533 1481353715.5817
329	1662181 4519 24322 43722 132 278 147 -0.94360810545097 21.690950001677 818.82564968988 6895.6269404188
328	1666700 4778 24322 43722 132 278 147 -2.477189526491 2.2991887172299 0.31873042549705 49.408654949153
327	1671478 4535 24322 43722 132 278 147 27.72004510017 31.592149333858 4546.0995246707 140620.903894
323	1676013 3087 24322 43722 132 278 147 26.65 29.95 4257.45 123641.0475
322	1679100 4531 24322 43722 132 278 147 464.57244504838 4979.0839114883 400175.24537613 1342617413.2133
368	1683631 4336 25182 43723 136 279 144 -2.502702428244 28.448297264765 1093.4099457147 14364.540680643
367	1687967 4642 25182 43723 136 279 144 -2.0594919367939 2.3624612510321 5.8717988132935 116.65918635092
364	1692609 4477 24964 43723 135 279 145 25.464557300549 37.119657542955 4969.844256503 171118.09264353
356	1697086 3066 24748 43723 134 279 146 26.65 26.65 3890.9 103692.485
355	1700152 4486 24748 43723 134 279 146 30.1 4968.6079003891 366305.73750562 1237209681.3852
268	1704638 4171 24322 43723 132 279 148 -1.0928585112097 23.03103546767 1246.1848861361 17652.277585769
267	1708809 4681 24322 43723 132 279 148 -7.8021144767664 2.433153122256 -1.5349335277703 502.45732948158
264	1713490 4571 24322 43723 132 279 148 23.842060539025 32.06239515633 4195.6635597397 119522.59826613
259	1718061 3108 24322 43723 132 279 148 29.95 29.95 4432.6 132756.37
258	1721169 4570 24322 43723 132 279 148 815.48171528847 4982.5823124265 434781.97181252 1497239529.6264
288	1725739 4333 24322 43724 132 280 149 -1.0162594619712 22.766095728839 993.24700419937 11156.488557375
287	1730072 4784 24322 43724 132 280 149 -4.5291376759298 2.4684872900252 0.49921027964206 252.79240339839
284	1734856 4601 24322 43724 132 280 149 23.829656612271 30.199381093372 4232.4165923108 120589.98079662
281	1739457 3129 24322 43724 132 280 149 29.95 29.95 4462.55 133653.3725
280	1742586 4608 24322 43724 132 280 149 767.16368177535 4970.0536393624 433153.96659025 1484493540.1088
358	1747194 4459 24748 43725 134 281 148 -2.4122195518058 25.861770972233 1087.1834669933 12647.982728886
357	1751653 4786 24748 43725 134 281 148 -4.577683317365 2.4840767448768 3.30674763598 137.27227785552
354	1756439 4601 24534 43725 133 281 149 24.423918618537 36.060912801563 4992.5246872005 168239.10042569
348	1761040 3150 24322 43725 132 281 150 26.65 29.95 4146 114938.475
347	1764190 4617 24322 43725 132 281 150 30.1 4989.0750681871 379843.94936786 1291192833.3085
378	1768807 4376 25616 43726 138 282 145 -2.3564773793048 24.773410847966 1028.1841234449 11426.096923026
377	1773183 4693 25616 43726 138 282 145 -2.3198354226463 2.3079318872448 0.9644698354762 84.146600126111
374	1777876 4502 25398 43726 137 282 146 29.524127904031 35.43364265277 4981.6799015297 170262.69174199
366	1782378 3087 25182 43726 136 282 147 26.65 29.95 3976.95 107764.7475
365	1785465 4513 25182 43726 136 282 147 30.1 4979.3215110429 369870.77502726 1246344838.9238
294	1789978 4372 24322 43726 132 282 151 -1.0082792984137 22.473299129331 1069.1642103346 13023.356864415
293	1794350 4830 24322 43726 132 282 151 -5.9750191562733 2.4612672880176 0.69811194439449 336.03221612013
292	1799180 4657 24322 43726 132 282 151 23.661375656201 30.452660179634 4290.2762378528 122307.1897063
286	1803837 3171 24322 43726 132 282 151 29.95 29.95 4522.45 135447.3775
285	1807008 4661 24322 43726 132 282 151 727.99936819644 4988.1180786955 437236.78176351 1500345425.8854
308	1811669 4335 24322 43727 132 283 152 -0.76433831790203 23.111699970518 1143.4914491876 15006.599762405
307	1816004 4841 24322 43727 132 283 152 -6.865573441741 2.4215793571784 -0.66736623898716 395.21373628853
304	1820845 4692 24322 43727 132 283 152 23.110345090641 31.153382437324 4319.4080089652 123201.17253178
298	1825537 3192 24322 43727 132 283 152 29.95 29.95 4552.4 136344.38
297	1828729 4700 24322 43727 132 283 152 688.89481522193 4978.6461578434 436360.15755864 1491888517.9021
341	1833429 4710 24322 43728 132 284 153 -1.2769000827842 15.101882019815 874.64336450563 7661.4496603433
340	1838139 4971 24322 43728 132 284 153 -4.3913715859587 1.3704257298708 -0.16621285816655 67.167316463615
339	1843110 4725 24322 43728 132 284 153 27.180341248263 31.892291009819 4779.3015927032 149337.10140389
333	1847835 3213 24322 43728 132 284 153 26.65 29.95 4575.75 136867.8225
332	1851048 4725 24322 43728 132 284 153 218.04774993035 4965.7838182918 396979.90888401 1322259608.7433
353	1855773 4686 24534 43730 133 286 154 -2.073963068323 18.015139272111 940.21504962018 8484.0950929923
352	1860459 4995 24534 43730 133 286 154 -2.9284799655674 1.5915861325489 -0.17857480823295 60.376240442912
349	1865454 4780 24322 43730 132 286 155 29.368595220388 33.29531132742 4988.0606719725 160664.60704888
346	1870234 3255 24322 43730 132 286 155 26.65 29.95 4454.15 128388.9275
345	1873489 4767 24322 43730 132 286 155 30.1 4985.2971893646 387778.8975091 1288491202.2545
344	1878256 4874 24322 43734 132 290 159 -1.3144203622535 19.55413698061 851.51208206554 6799.9588713486
343	1883130 5168 24322 43734 132 290 159 -1.0994332784321 1.9175877650045 1.3926371735064 44.40303474623
342	1888298 4920 24322 43734 132 290 159 29.662304501356 30.899233530175 4815.155161407 145843.73627948
336	1893218 3339 24322 43734 132 290 159 29.95 29.95 4762.05 142623.3975
335	1896557 4914 24322 43734 132 290 159 180.26669910091 4965.1140560248 408909.18677866 1358859054.4162
386	1901471 4707 26058 43737 140 293 154 -1.6422192938663 19.454498985411 968.19281657413 9125.1207637459
385	1906178 4989 26058 43737 140 293 154 -1.6476632160601 1.6269124435659 6.1587888776234 60.092796575699
384	1911167 4794 25836 43737 139 293 155 26.902465760442 33.911788962192 4967.7927986056 159435.1443169
376	1915961 3276 25616 43737 138 293 156 26.65 29.95 4233.3 115090.65
375	1919237 4794 25616 43737 138 293 156 30.1 4964.8315439676 380684.8991003 1253302144.8043
383	1924031 4877 25836 43740 139 296 158 -1.4026843634827 14.04511421757 890.85951556661 7118.9805734845
382	1928908 5137 25836 43740 139 296 158 -1.0682573422673 1.0889980470529 1.671327262562 37.261820685492
379	1934045 4911 25616 43740 138 296 159 29.598472129945 32.008846533612 4984.424401518 156278.40971351
371	1938956 3360 25398 43740 137 296 160 26.65 29.95 4471.9 125402.74
370	1942316 4925 25398 43740 137 296 160 30.1 4983.2546021255 398471.19396327 1328515934.0142
389	1947241 4802 26280 43743 141 299 159 -1.0065928524654 23.209413100811 964.75221071121 9449.5810942545
388	1952043 5161 26280 43743 141 299 159 -5.4021585344481 2.4936851602979 -0.27359354920918 112.56780927949
387	1957204 4936 26058 43743 140 299 160 25.568917693029 31.911862783353 4976.1096240067 154843.29103097
381	1962140 3381 25836 43743 139 299 161 26.65 29.95 4465.55 124245.1625
380	1965521 4955 25836 43743 139 299 161 30.1 4975.5121413284 398915.14779744 1326581225.51
406	1970476 4624 28212 43744 150 300 151 -2.1243418301726 17.771844741887 914.54194109167 8383.03595822
405	1975100 4892 28212 43744 150 300 151 -1.4668436887186 1.4408603521403 -2.6549933151506 53.119562441589
402	1979992 4698 28000 43744 149 300 152 30.461568414585 33.637518663521 4965.5001016669 162306.38192217
401	1984690 3213 27788 43744 148 300 153 26.65 29.95 4117.05 110905.4025
400	1987903 4705 27788 43744 148 300 153 30.1 4965.0913637632 381990.99646216 1274494252.1572
363	1992608 5073 24964 43744 135 300 166 -1.0909148360319 13.677732320143 872.77521421468 6691.5448720829
362	1997681 5398 24964 43744 135 300 166 -1.1847302431124 1.1593784310389 1.0971921475245 45.800592461572
359	2003079 5162 24748 43744 134 300 167 28.151523209771 30.470885189331 4978.693870596 148452.88795871
351	2008241 3528 24534 43744 133 300 168 26.65 29.95 5018.4 149949.3
350	2011769 5172 24534 43744 133 300 168 30.1 4979.5451552387 418343.00773128 1393181400.8896
411	2016941 4568 28642 43746 152 302 151 -1.8959121333078 25.093812305775 984.87445495935 10697.403831246
410	2021509 4896 28642 43746 152 302 151 -2.0950475103704 2.3702241180581 -0.90970637642216 89.505959338489
409	2026405 4692 28426 43746 151 302 152 29.958736980767 34.124344003507 4988.2503420218 163825.52911294
404	2031097 3213 28212 43746 150 302 153 26.65 29.95 4225.95 117069.1425
403	2034310 4701 28212 43746 150 302 153 30.1 4985.620799722 384730.29678469 1290534630.3959
399	2039011 4844 27364 43747 146 303 158 -1.6872128715479 21.912957359653 914.80923399978 8104.5465996016
398	2043855 5129 27364 43747 146 303 158 -1.3253751010814 2.1293862882885 3.4647328266119 53.057541879366
397	2048984 4914 27146 43747 145 303 159 28.230398837019 32.151546117108 4971.4698457438 155548.8948129
393	2053898 3360 26928 43747 144 303 160 26.65 29.95 4478.5 125776.3
392	2057258 4924 26928 43747 144 303 160 30.1 4969.6292183892 398442.84283558 1326565095.2005
373	2062182 5164 25398 43748 137 304 168 -1.1534854234699 19.497013446793 867.61699673118 6675.3517578528
372	2067346 5479 25398 43748 137 304 168 -4.3514561483268 2.3541684731026 0.23127623338951 64.96349974758
369	2072825 5209 25182 43748 136 304 169 24.581786483013 30.15136889155 4977.931050247 146678.98558689
361	2078034 3570 24964 43748 135 304 170 29.95 29.95 5091.5 152490.425
360	2081604 5225 24964 43748 135 304 170 30.1 4978.8665313822 422487.04262831 1406571871.1419
426	2086829 4576 29938 43749 158 305 148 -2.1453598546552 15.41440820632 919.97088576705 8231.2667201014
425	2091405 4816 29938 43749 158 305 148 -1.0685705268406 1.1034679145087 -0.048808014544193 37.671088276609
422	2096221 4604 29722 43749 157 305 149 32.092346236663 34.029957242073 4976.9667250604 166263.4254411
421	2100825 3150 29506 43749 156 305 150 26.65 29.95 4165.8 116059.155
420	2103975 4618 29506 43749 156 305 150 30.1 4973.3991280132 372581.74315848 1238675618.1815
416	2108593 4781 28858 43751 153 307 155 -1.8741771667127 18.005412771454 895.02657157165 8157.419583959
415	2113374 5030 28858 43751 153 307 155 -1.1463354990701 1.6274893151706 -0.057336144212712 51.549952056561
412	2118404 4814 28642 43751 152 307 156 29.451208851544 32.629102201791 4972.6975929838 158565.5343648
408	2123218 3297 28426 43751 151 307 157 26.65 29.95 4626.25 136533.4525
407	2126515 4827 28426 43751 151 307 157 30.1 4971.0153554985 391195.23073816 1303253605.5497
396	2131342 4972 27146 43751 145 307 163 -0.77149708816756 14.185700007073 874.47922180859 6632.9761765458
395	2136314 5319 27146 43751 145 307 163 -1.232931978011 1.1838971561519 -0.18668790464289 40.513293022282
394	2141633 5068 26928 43751 144 307 164 29.746792422017 30.990311423017 4989.1911561279 151801.53369158
391	2146701 3465 26712 43751 143 307 165 26.65 29.95 4925.25 147071.5125
390	2150166 5074 26712 43751 143 307 165 30.1 4989.0749043364 411309.18683485 1371432402.1377
434	2155240 4506 31426 43754 165 310 146 -2.4540410638044 15.765526549677 930.04171725757 8086.4967906804
433	2159746 4763 31426 43754 165 310 146 -1.1297543387627 1.1204214097233 0.023606977192685 31.926093726056
432	2164509 4543 31214 43754 164 310 147 33.175506020683 34.401755959456 4971.5956713225 168160.56260792
431	2169052 3108 31002 43754 163 310 148 26.65 29.95 4195 119308.21
430	2172160 4547 31002 43754 163 310 148 30.1 4967.5551054101 367069.38536049 1218867526.8943
448	2176707 4559 33122 43766 173 322 150 -1.3522683422295 23.180443735179 966.26877719118 9511.930949032
447	2181266 4861 33122 43766 173 322 150 -1.6380661142915 2.1881171141285 -0.098652345768642 64.792842302061
444	2186127 4663 32910 43766 172 322 151 29.584208894669 34.548399077832 4980.2753915775 164624.65316282
441	2190790 3192 32698 43766 171 322 152 26.65 29.95 4110.2 111315.86
440	2193982 4673 32698 43766 171 322 152 30.1 4976.1605781631 384517.3850004 1293588599.0422
429	2198655 4931 30366 43766 160 322 163 -0.88732681958247 16.994137088195 892.58355712315 7122.157074655
428	2203586 5294 30366 43766 160 322 163 -1.8912538567806 1.6220643621082 -1.03349682322 51.759786393679
427	2208880 5058 30154 43766 159 322 164 28.652311242827 31.082329935803 4992.9847896729 152041.01766977
424	2213938 3465 29938 43766 158 322 165 26.65 29.95 4710.75 134930.8125
423	2217403 5076 29938 43766 158 322 165 30.1 4993.1118875628 411943.11352695 1375018055.0396
458	2222479 4559 33546 43767 175 323 149 -2.1011276146199 24.49325654464 986.34135538118 10019.114563926
457	2227038 4840 33546 43767 175 323 149 -1.8820018821422 2.4430674605537 4.8554197234428 66.031631567298
454	2231878 4634 33334 43767 174 323 150 28.65671418566 34.076910590525 4968.1418462335 164699.01946837
446	2236512 3171 33122 43767 173 323 151 26.65 29.95 4301.35 122933.1175
445	2239683 4642 33122 43767 173 323 151 30.1 4964.7297123244 375788.46786924 1253362283.0472
419	2244325 5096 29290 43767 155 323 169 -0.64450946549935 13.577677437654 872.71452276095 6627.2050122374
418	2249421 5498 29290 43767 155 323 169 -1.1799271171913 1.1833258951083 0.46193465299439 50.53238186439
417	2254919 5252 29074 43767 154 323 170 28.717759270881 29.950102352964 4976.8517456066 145724.15804851
414	2260171 3591 28858 43767 153 323 171 26.65 29.95 5108.25 152640.3075
413	2263762 5259 28858 43767 153 323 171 30.1 4977.4018532006 425915.95208581 1417309377.5534
439	2269021 4591 32486 43768 170 324 155 -2.059490514969 23.868263906601 1044.7646130119 13064.980823177
438	2273612 5000 32486 43768 170 324 155 -3.2698068912572 2.3473248523078 -3.128610044951 163.92105955643
437	2278612 4819 32274 43768 169 324 156 28.716248846169 33.169007344503 4967.3267039123 158408.30244339
436	2283431 3297 32062 43768 168 324 157 26.65 29.95 4679.05 139521.9325
435	2286728 4825 32062 43768 168 324 157 30.1 4967.4640834014 396109.62572629 1330763416.7132
461	2291553 4632 33758 43769 176 325 150 -2.2124347349432 21.703352607005 986.20918898044 10362.128315138
460	2296185 4859 33758 43769 176 325 150 -1.2599949199937 2.2239199167234 8.0464549819023 66.374398050536
459	2301044 4667 33546 43769 175 325 151 25.575664259122 33.951434674944 4983.6635233329 164675.44005009
451	2305711 3192 33334 43769 174 325 152 26.65 29.95 4341.2 124390.46
450	2308903 4673 33334 43769 174 325 152 30.1 4980.1414040919 378284.95895898 1264415082.3778
471	2313576 4591 34394 43770 179 326 148 -2.3293299397162 23.63861397317 958.67732797596 9347.79513524
470	2318167 4806 34394 43770 179 326 148 -1.0491016576998 2.267652854498 5.7166833466173 48.400953390259
467	2322973 4606 34182 43770 178 326 149 27.75033389385 34.040830670268 4965.5364191407 165561.44040735
464	2327579 3150 33970 43770 177 326 150 26.65 29.95 4198.8 117926.955
463	2330729 4610 33970 43770 177 326 150 30.1 4962.1694019002 370805.75873679 1230641295.7505
453	2335339 4870 33334 43776 174 332 159 -1.5484542350014 14.293594909591 889.28889600668 7169.4951477557
452	2340209 5170 33334 43776 174 332 159 -1.2156371207675 1.1341390790767 0.16533900809009 42.642413605581
449	2345379 4939 33122 43776 173 332 160 30.057870567029 31.778525476997 4983.0210335997 155213.19978837
443	2350318 3381 32910 43776 172 332 161 26.65 29.95 4805.45 143483.5025
442	2353699 4941 32910 43776 172 332 161 30.1 4981.9572268847 400928.00067309 1335142564.8482
466	2358640 4856 33970 43779 177 335 159 -1.2357095979738 23.202450709807 947.35921681522 8593.2513833155
465	2363496 5176 33970 43779 177 335 159 -1.114964930166 2.3764102850691 7.5812943309452 60.290819258702
462	2368672 4935 33758 43779 176 335 160 23.362496515082 31.920466116677 4987.1767072833 155604.15567822
456	2373607 3381 33546 43779 175 335 161 26.65 29.95 4805.45 143483.5025
455	2376988 4951 33546 43779 175 335 161 30.1 4986.3329164373 399810.87028538 1333189674.8636
474	2381939 4790 34818 43780 181 336 156 -1.3785637226446 14.60887359759 890.13265950701 7298.2930673939
473	2386729 5070 34818 43780 181 336 156 -1.2283182922864 1.1328392595169 -0.81318838868383 40.970355136101
472	2391799 4854 34606 43780 180 336 157 30.694282569092 32.360877465391 4977.4082260006 157822.61336486
469	2396653 3318 34394 43780 179 336 158 26.65 29.95 4705.7 140232.155
468	2399971 4857 34394 43780 179 336 158 30.1 4976.7105570496 393074.55662846 1309005718.6797
491	2404828 4757 36090 43785 187 341 155 -1.9462632295502 19.501718708216 936.96666241127 8260.8685322586
490	2409585 5034 36090 43785 187 341 155 -1.0889387779753 1.832898654684 4.3864510019348 46.165645345059
489	2414619 4815 35878 43785 186 341 156 28.122064727558 32.683299019623 4994.3037890765 159945.79504209
483	2419434 3297 35666 43785 185 341 157 26.65 29.95 4286.35 117295.1125
482	2422731 4833 35666 43785 185 341 157 30.1 4991.895273347 390696.53242126 1303702313.9602
481	2427564 4925 35454 43787 184 343 160 -1.4657148893512 13.309986984783 864.73690537358 6603.7180210973
480	2432489 5219 35454 43787 184 343 160 -1.0355387825985 1.0315804110724 -0.52331317478092 34.971232575565
477	2437708 4971 35242 43787 183 343 161 30.349733805395 31.567908414634 4985.1241781706 154376.04380758
476	2442679 3402 35030 43787 182 343 162 26.65 29.95 4835.4 144380.505
475	2446081 4986 35030 43787 182 343 162 30.1 4984.3298148326 403780.52247455 1345985373.4164
501	2451067 4760 36724 43788 190 344 155 -1.2518682823062 15.936313991 906.9788149927 7647.0989047567
500	2455827 5037 36724 43788 190 344 155 -1.1014758222154 1.2915613122102 1.3478566167696 40.830811200108
497	2460864 4819 36514 43788 189 344 156 30.322354982578 32.599524845509 4983.5106464893 159227.33665076
494	2465683 3297 36302 43788 188 344 157 26.65 29.95 4454.65 126820.8925
493	2468980 4827 36302 43788 188 344 157 30.1 4981.9404348899 391239.65591117 1304755222.323
509	2473807 4815 37354 43794 193 350 158 -0.87276081937587 22.474363150098 939.62221760174 8151.6711733119
508	2478622 5121 37354 43794 193 350 158 -1.3915776078657 2.4115201292443 4.5884536875433 52.081057723596
507	2483743 4912 37144 43794 192 350 159 27.234462961181 32.085574700779 4987.2671139423 156508.58470463
503	2488655 3360 36934 43794 191 350 160 26.65 29.95 4379.5 120172.9
502	2492015 4923 36934 43794 191 350 160 30.1 4985.4112317693 397319.38716556 1323610948.9607
488	2496938 5056 35878 43796 186 352 167 -1.1154530476624 12.958395552519 870.47726776892 6470.3085134515
487	2501994 5421 35878 43796 186 352 167 -1.166710377438 1.0791057924507 -0.62740585679421 46.513215690766
484	2507415 5190 35666 43796 185 352 168 28.986130844028 30.217691589829 4974.9811099914 147347.46259285
479	2512605 3549 35454 43796 184 352 169 26.65 29.95 5048.35 150846.3025
478	2516154 5198 35454 43796 184 352 169 30.1 4975.6309706447 420779.49790217 1400007934.5923
496	2521352 5161 36302 43799 188 355 168 -0.93906215035558 16.762354201011 879.64275041319 6741.7833588043
495	2526513 5464 36302 43799 188 355 168 -1.1454430507729 1.7947551704128 4.3174461353719 45.815998761854
492	2531977 5223 36090 43799 187 355 169 25.508066965333 30.167878917755 4987.9930290485 147266.03292479
486	2537200 3570 35878 43799 186 355 170 26.65 29.95 5075 151556.525
485	2540770 5224 35878 43799 186 355 170 30.1 4988.2675159478 423265.18845189 1411169943.5418
506	2545994 5070 37144 43803 192 359 168 -1.0591992884317 13.426700685051 870.75056784255 6626.8827641069
505	2551064 5454 37144 43803 192 359 168 -1.2389507578337 1.1556256428594 0.42796430469025 49.452415640823
504	2556518 5216 36934 43803 191 359 169 28.795913016732 30.034863774566 4968.608256423 146100.4088306
499	2561734 3570 36724 43803 190 359 170 26.65 29.95 5075 151556.525
498	2565304 5234 36724 43803 190 359 170 30.1 4968.7908783049 422372.42370765 1403282774.0231

