file 2642566 1524942015                                         
version 2
run Scenario1-0-20180428-20:59:52-14600
attr configname Scenario1
attr datetime 20180428-20:59:52
attr experiment Scenario1
attr inifile omnetpp.ini
attr iterationvars ""
attr iterationvarsf ""
attr measurement ""
attr network HighwayScenario1
attr processid 14600
attr repetition 0
attr replication #0
attr resultdir results
attr runnumber 0
attr seedset 0
param *.ambulanceNode[*].applType "\"AmbulanceAppLayer\""
param *.ambulanceNode[*].appl.messageLength 58
param *.attackerNode[*].applType "\"AttackerAppLayer\""
param *.node[*].applType "\"NormalAppLayer\""
param *.node[*].appl.headerLength "80 bit"
param *.node[*].appl.sendBeacons false
param *.node[*].appl.dataOnSch false
param **.debug false
param **.coreDebug false
param *.playgroundSizeX 5500m
param *.playgroundSizeY 500m
param *.playgroundSizeZ 50m
param *.annotations.draw false
param *.obstacles.debug false
param *.manager.updateInterval 1s
param *.manager.host "\"localhost\""
param *.manager.port 9999
param *.manager.autoShutdown true
param *.manager.launchConfig "xmldoc(\"highway.launchd.xml\")"
param *.connectionManager.sendDirect true
param *.connectionManager.maxInterfDist 2600m
param *.connectionManager.drawMaxIntfDist false
param *.**.nic.mac1609_4.useServiceChannel false
param *.**.nic.mac1609_4.txPower 20mW
param *.**.nic.mac1609_4.bitrate 6Mbps
param *.**.nic.phy80211p.sensitivity -89dBm
param *.**.nic.phy80211p.useThermalNoise true
param *.**.nic.phy80211p.thermalNoise -110dBm
param *.**.nic.phy80211p.decider "xmldoc(\"config.xml\")"
param *.**.nic.phy80211p.analogueModels "xmldoc(\"config.xml\")"
param *.**.nic.phy80211p.usePropagationDelay true
param *.**.nic.phy80211p.antenna "xmldoc(\"antenna.xml\", \"/root/Antenna[@id='monopole']\")"
param *.manager.moduleType "\"ambulance=org.car2x.veins.nodes.Car attacker=org.car2x.veins.nodes.Car *=org.car2x.veins.nodes.Car\""
param *.manager.moduleName "\"ambulance=ambulanceNode attacker=attackerNode *=node\""
param *.node[*].veinsmobilityType.debug true
param *.node[*].veinsmobility.x 0
param *.node[*].veinsmobility.y 0
param *.node[*].veinsmobility.z 1.895
param *.ambulanceNode[*].veinsmobilityType.debug true
param *.ambulanceNode[*].veinsmobility.x 0
param *.ambulanceNode[*].veinsmobility.y 0
param *.ambulanceNode[*].veinsmobility.z 1.895
param *.attackerNode[*].veinsmobilityType.debug true
param *.attackerNode[*].veinsmobility.x 0
param *.attackerNode[*].veinsmobility.y 0
param *.attackerNode[*].veinsmobility.z 1.895

vector 0 HighwayScenario1.node[0].veinsmobility posx ETV
vector 1 HighwayScenario1.node[0].veinsmobility posy ETV
vector 2 HighwayScenario1.node[0].veinsmobility speed ETV
vector 3 HighwayScenario1.node[1].veinsmobility posx ETV
vector 4 HighwayScenario1.node[1].veinsmobility posy ETV
vector 5 HighwayScenario1.node[0].veinsmobility acceleration ETV
vector 6 HighwayScenario1.node[0].veinsmobility co2emission ETV
vector 7 HighwayScenario1.node[2].veinsmobility posx ETV
vector 8 HighwayScenario1.node[2].veinsmobility posy ETV
vector 9 HighwayScenario1.node[1].veinsmobility speed ETV
vector 10 HighwayScenario1.node[3].veinsmobility posx ETV
vector 11 HighwayScenario1.node[3].veinsmobility posy ETV
vector 12 HighwayScenario1.node[1].veinsmobility acceleration ETV
vector 13 HighwayScenario1.node[1].veinsmobility co2emission ETV
vector 14 HighwayScenario1.node[2].veinsmobility speed ETV
vector 15 HighwayScenario1.node[2].veinsmobility acceleration ETV
vector 16 HighwayScenario1.node[2].veinsmobility co2emission ETV
vector 17 HighwayScenario1.node[3].veinsmobility speed ETV
vector 18 HighwayScenario1.node[4].veinsmobility posx ETV
vector 19 HighwayScenario1.node[4].veinsmobility posy ETV
vector 20 HighwayScenario1.node[3].veinsmobility acceleration ETV
vector 21 HighwayScenario1.node[3].veinsmobility co2emission ETV
vector 22 HighwayScenario1.node[4].veinsmobility speed ETV
vector 23 HighwayScenario1.node[5].veinsmobility posx ETV
vector 24 HighwayScenario1.node[5].veinsmobility posy ETV
vector 25 HighwayScenario1.node[4].veinsmobility acceleration ETV
vector 26 HighwayScenario1.node[4].veinsmobility co2emission ETV
vector 27 HighwayScenario1.node[6].veinsmobility posx ETV
vector 28 HighwayScenario1.node[6].veinsmobility posy ETV
vector 29 HighwayScenario1.node[5].veinsmobility speed ETV
vector 30 HighwayScenario1.node[5].veinsmobility acceleration ETV
vector 31 HighwayScenario1.node[5].veinsmobility co2emission ETV
vector 32 HighwayScenario1.node[6].veinsmobility speed ETV
vector 33 HighwayScenario1.node[7].veinsmobility posx ETV
vector 34 HighwayScenario1.node[7].veinsmobility posy ETV
vector 35 HighwayScenario1.node[6].veinsmobility acceleration ETV
vector 36 HighwayScenario1.node[6].veinsmobility co2emission ETV
vector 37 HighwayScenario1.ambulanceNode[8].veinsmobility posx ETV
vector 38 HighwayScenario1.ambulanceNode[8].veinsmobility posy ETV
vector 39 HighwayScenario1.node[7].veinsmobility speed ETV
vector 40 HighwayScenario1.node[9].veinsmobility posx ETV
vector 41 HighwayScenario1.node[9].veinsmobility posy ETV
vector 42 HighwayScenario1.node[7].veinsmobility acceleration ETV
vector 43 HighwayScenario1.node[7].veinsmobility co2emission ETV
vector 44 HighwayScenario1.ambulanceNode[8].veinsmobility speed ETV
vector 45 HighwayScenario1.node[10].veinsmobility posx ETV
vector 46 HighwayScenario1.node[10].veinsmobility posy ETV
vector 47 HighwayScenario1.ambulanceNode[8].veinsmobility acceleration ETV
vector 48 HighwayScenario1.ambulanceNode[8].veinsmobility co2emission ETV
vector 49 HighwayScenario1.node[9].veinsmobility speed ETV
vector 50 HighwayScenario1.attackerNode[11].veinsmobility posx ETV
vector 51 HighwayScenario1.attackerNode[11].veinsmobility posy ETV
vector 52 HighwayScenario1.node[9].veinsmobility acceleration ETV
vector 53 HighwayScenario1.node[9].veinsmobility co2emission ETV
vector 54 HighwayScenario1.node[10].veinsmobility speed ETV
vector 55 HighwayScenario1.node[12].veinsmobility posx ETV
vector 56 HighwayScenario1.node[12].veinsmobility posy ETV
vector 57 HighwayScenario1.node[10].veinsmobility acceleration ETV
vector 58 HighwayScenario1.node[10].veinsmobility co2emission ETV
vector 59 HighwayScenario1.attackerNode[11].veinsmobility speed ETV
vector 60 HighwayScenario1.node[13].veinsmobility posx ETV
vector 61 HighwayScenario1.node[13].veinsmobility posy ETV
vector 62 HighwayScenario1.attackerNode[11].veinsmobility acceleration ETV
vector 63 HighwayScenario1.attackerNode[11].veinsmobility co2emission ETV
vector 64 HighwayScenario1.node[12].veinsmobility speed ETV
vector 65 HighwayScenario1.node[12].veinsmobility acceleration ETV
vector 66 HighwayScenario1.node[12].veinsmobility co2emission ETV
vector 67 HighwayScenario1.node[13].veinsmobility speed ETV
vector 68 HighwayScenario1.node[13].veinsmobility acceleration ETV
vector 69 HighwayScenario1.node[13].veinsmobility co2emission ETV
vector 70 HighwayScenario1.node[14].veinsmobility posx ETV
vector 71 HighwayScenario1.node[14].veinsmobility posy ETV
vector 72 HighwayScenario1.node[14].veinsmobility speed ETV
vector 73 HighwayScenario1.node[14].veinsmobility acceleration ETV
vector 74 HighwayScenario1.node[14].veinsmobility co2emission ETV
vector 75 HighwayScenario1.node[15].veinsmobility posx ETV
vector 76 HighwayScenario1.node[15].veinsmobility posy ETV
vector 77 HighwayScenario1.node[16].veinsmobility posx ETV
vector 78 HighwayScenario1.node[16].veinsmobility posy ETV
vector 79 HighwayScenario1.node[15].veinsmobility speed ETV
vector 80 HighwayScenario1.node[17].veinsmobility posx ETV
vector 81 HighwayScenario1.node[17].veinsmobility posy ETV
vector 82 HighwayScenario1.node[15].veinsmobility acceleration ETV
vector 83 HighwayScenario1.node[15].veinsmobility co2emission ETV
vector 84 HighwayScenario1.node[16].veinsmobility speed ETV
vector 85 HighwayScenario1.node[18].veinsmobility posx ETV
vector 86 HighwayScenario1.node[18].veinsmobility posy ETV
vector 87 HighwayScenario1.node[16].veinsmobility acceleration ETV
vector 88 HighwayScenario1.node[16].veinsmobility co2emission ETV
vector 89 HighwayScenario1.node[17].veinsmobility speed ETV
vector 90 HighwayScenario1.node[19].veinsmobility posx ETV
vector 91 HighwayScenario1.node[19].veinsmobility posy ETV
vector 92 HighwayScenario1.node[17].veinsmobility acceleration ETV
vector 93 HighwayScenario1.node[17].veinsmobility co2emission ETV
vector 94 HighwayScenario1.node[18].veinsmobility speed ETV
vector 95 HighwayScenario1.node[20].veinsmobility posx ETV
vector 96 HighwayScenario1.node[20].veinsmobility posy ETV
vector 97 HighwayScenario1.node[18].veinsmobility acceleration ETV
vector 98 HighwayScenario1.node[18].veinsmobility co2emission ETV
vector 99 HighwayScenario1.node[19].veinsmobility speed ETV
vector 100 HighwayScenario1.node[21].veinsmobility posx ETV
vector 101 HighwayScenario1.node[21].veinsmobility posy ETV
vector 102 HighwayScenario1.node[19].veinsmobility acceleration ETV
vector 103 HighwayScenario1.node[19].veinsmobility co2emission ETV
vector 104 HighwayScenario1.node[20].veinsmobility speed ETV
vector 105 HighwayScenario1.node[22].veinsmobility posx ETV
vector 106 HighwayScenario1.node[22].veinsmobility posy ETV
vector 107 HighwayScenario1.node[20].veinsmobility acceleration ETV
vector 108 HighwayScenario1.node[20].veinsmobility co2emission ETV
vector 109 HighwayScenario1.node[21].veinsmobility speed ETV
vector 110 HighwayScenario1.node[23].veinsmobility posx ETV
vector 111 HighwayScenario1.node[23].veinsmobility posy ETV
vector 112 HighwayScenario1.node[21].veinsmobility acceleration ETV
vector 113 HighwayScenario1.node[21].veinsmobility co2emission ETV
vector 114 HighwayScenario1.node[22].veinsmobility speed ETV
vector 115 HighwayScenario1.node[22].veinsmobility acceleration ETV
vector 116 HighwayScenario1.node[22].veinsmobility co2emission ETV
vector 117 HighwayScenario1.node[23].veinsmobility speed ETV
vector 118 HighwayScenario1.node[24].veinsmobility posx ETV
vector 119 HighwayScenario1.node[24].veinsmobility posy ETV
vector 120 HighwayScenario1.node[23].veinsmobility acceleration ETV
vector 121 HighwayScenario1.node[23].veinsmobility co2emission ETV
vector 122 HighwayScenario1.node[25].veinsmobility posx ETV
vector 123 HighwayScenario1.node[25].veinsmobility posy ETV
vector 124 HighwayScenario1.node[24].veinsmobility speed ETV
vector 125 HighwayScenario1.node[24].veinsmobility acceleration ETV
vector 126 HighwayScenario1.node[24].veinsmobility co2emission ETV
vector 127 HighwayScenario1.node[25].veinsmobility speed ETV
vector 128 HighwayScenario1.node[25].veinsmobility acceleration ETV
vector 129 HighwayScenario1.node[25].veinsmobility co2emission ETV
vector 130 HighwayScenario1.node[26].veinsmobility posx ETV
vector 131 HighwayScenario1.node[26].veinsmobility posy ETV
vector 132 HighwayScenario1.node[27].veinsmobility posx ETV
vector 133 HighwayScenario1.node[27].veinsmobility posy ETV
vector 134 HighwayScenario1.node[26].veinsmobility speed ETV
vector 135 HighwayScenario1.node[28].veinsmobility posx ETV
vector 136 HighwayScenario1.node[28].veinsmobility posy ETV
vector 137 HighwayScenario1.node[26].veinsmobility acceleration ETV
vector 138 HighwayScenario1.node[26].veinsmobility co2emission ETV
vector 139 HighwayScenario1.node[27].veinsmobility speed ETV
vector 140 HighwayScenario1.node[29].veinsmobility posx ETV
vector 141 HighwayScenario1.node[29].veinsmobility posy ETV
vector 142 HighwayScenario1.node[27].veinsmobility acceleration ETV
vector 143 HighwayScenario1.node[27].veinsmobility co2emission ETV
vector 144 HighwayScenario1.node[28].veinsmobility speed ETV
vector 145 HighwayScenario1.node[28].veinsmobility acceleration ETV
vector 146 HighwayScenario1.node[28].veinsmobility co2emission ETV
vector 147 HighwayScenario1.node[29].veinsmobility speed ETV
vector 148 HighwayScenario1.node[30].veinsmobility posx ETV
vector 149 HighwayScenario1.node[30].veinsmobility posy ETV
vector 150 HighwayScenario1.node[29].veinsmobility acceleration ETV
vector 151 HighwayScenario1.node[29].veinsmobility co2emission ETV
vector 152 HighwayScenario1.node[30].veinsmobility speed ETV
vector 153 HighwayScenario1.node[30].veinsmobility acceleration ETV
vector 154 HighwayScenario1.node[30].veinsmobility co2emission ETV
vector 155 HighwayScenario1.node[31].veinsmobility posx ETV
vector 156 HighwayScenario1.node[31].veinsmobility posy ETV
vector 157 HighwayScenario1.node[32].veinsmobility posx ETV
vector 158 HighwayScenario1.node[32].veinsmobility posy ETV
vector 159 HighwayScenario1.node[31].veinsmobility speed ETV
vector 160 HighwayScenario1.node[33].veinsmobility posx ETV
vector 161 HighwayScenario1.node[33].veinsmobility posy ETV
vector 162 HighwayScenario1.node[31].veinsmobility acceleration ETV
vector 163 HighwayScenario1.node[31].veinsmobility co2emission ETV
vector 164 HighwayScenario1.node[32].veinsmobility speed ETV
vector 165 HighwayScenario1.node[34].veinsmobility posx ETV
vector 166 HighwayScenario1.node[34].veinsmobility posy ETV
vector 167 HighwayScenario1.node[32].veinsmobility acceleration ETV
vector 168 HighwayScenario1.node[32].veinsmobility co2emission ETV
vector 169 HighwayScenario1.node[33].veinsmobility speed ETV
vector 170 HighwayScenario1.node[35].veinsmobility posx ETV
vector 171 HighwayScenario1.node[35].veinsmobility posy ETV
vector 172 HighwayScenario1.node[33].veinsmobility acceleration ETV
vector 173 HighwayScenario1.node[33].veinsmobility co2emission ETV
vector 174 HighwayScenario1.node[34].veinsmobility speed ETV
vector 175 HighwayScenario1.node[34].veinsmobility acceleration ETV
vector 176 HighwayScenario1.node[34].veinsmobility co2emission ETV
vector 177 HighwayScenario1.node[35].veinsmobility speed ETV
vector 178 HighwayScenario1.node[35].veinsmobility acceleration ETV
vector 179 HighwayScenario1.node[35].veinsmobility co2emission ETV
vector 180 HighwayScenario1.node[36].veinsmobility posx ETV
vector 181 HighwayScenario1.node[36].veinsmobility posy ETV
vector 182 HighwayScenario1.node[37].veinsmobility posx ETV
vector 183 HighwayScenario1.node[37].veinsmobility posy ETV
vector 184 HighwayScenario1.node[36].veinsmobility speed ETV
vector 185 HighwayScenario1.node[36].veinsmobility acceleration ETV
vector 186 HighwayScenario1.node[36].veinsmobility co2emission ETV
vector 187 HighwayScenario1.node[37].veinsmobility speed ETV
vector 188 HighwayScenario1.node[38].veinsmobility posx ETV
vector 189 HighwayScenario1.node[38].veinsmobility posy ETV
vector 190 HighwayScenario1.node[37].veinsmobility acceleration ETV
vector 191 HighwayScenario1.node[37].veinsmobility co2emission ETV
vector 192 HighwayScenario1.node[39].veinsmobility posx ETV
vector 193 HighwayScenario1.node[39].veinsmobility posy ETV
vector 194 HighwayScenario1.node[38].veinsmobility speed ETV
vector 195 HighwayScenario1.node[40].veinsmobility posx ETV
vector 196 HighwayScenario1.node[40].veinsmobility posy ETV
vector 197 HighwayScenario1.node[38].veinsmobility acceleration ETV
vector 198 HighwayScenario1.node[38].veinsmobility co2emission ETV
vector 199 HighwayScenario1.node[39].veinsmobility speed ETV
vector 200 HighwayScenario1.node[39].veinsmobility acceleration ETV
vector 201 HighwayScenario1.node[39].veinsmobility co2emission ETV
vector 202 HighwayScenario1.node[40].veinsmobility speed ETV
vector 203 HighwayScenario1.node[41].veinsmobility posx ETV
vector 204 HighwayScenario1.node[41].veinsmobility posy ETV
vector 205 HighwayScenario1.node[40].veinsmobility acceleration ETV
vector 206 HighwayScenario1.node[40].veinsmobility co2emission ETV
vector 207 HighwayScenario1.node[42].veinsmobility posx ETV
vector 208 HighwayScenario1.node[42].veinsmobility posy ETV
vector 209 HighwayScenario1.node[41].veinsmobility speed ETV
vector 210 HighwayScenario1.node[43].veinsmobility posx ETV
vector 211 HighwayScenario1.node[43].veinsmobility posy ETV
vector 212 HighwayScenario1.node[41].veinsmobility acceleration ETV
vector 213 HighwayScenario1.node[41].veinsmobility co2emission ETV
vector 214 HighwayScenario1.node[42].veinsmobility speed ETV
vector 215 HighwayScenario1.node[42].veinsmobility acceleration ETV
vector 216 HighwayScenario1.node[42].veinsmobility co2emission ETV
vector 217 HighwayScenario1.node[43].veinsmobility speed ETV
vector 218 HighwayScenario1.node[44].veinsmobility posx ETV
vector 219 HighwayScenario1.node[44].veinsmobility posy ETV
vector 220 HighwayScenario1.node[43].veinsmobility acceleration ETV
vector 221 HighwayScenario1.node[43].veinsmobility co2emission ETV
vector 222 HighwayScenario1.node[44].veinsmobility speed ETV
vector 223 HighwayScenario1.node[44].veinsmobility acceleration ETV
vector 224 HighwayScenario1.node[44].veinsmobility co2emission ETV
vector 225 HighwayScenario1.node[45].veinsmobility posx ETV
vector 226 HighwayScenario1.node[45].veinsmobility posy ETV
vector 227 HighwayScenario1.node[45].veinsmobility speed ETV
vector 228 HighwayScenario1.node[45].veinsmobility acceleration ETV
vector 229 HighwayScenario1.node[45].veinsmobility co2emission ETV
vector 230 HighwayScenario1.node[46].veinsmobility posx ETV
vector 231 HighwayScenario1.node[46].veinsmobility posy ETV
vector 232 HighwayScenario1.node[47].veinsmobility posx ETV
vector 233 HighwayScenario1.node[47].veinsmobility posy ETV
vector 234 HighwayScenario1.node[46].veinsmobility speed ETV
vector 235 HighwayScenario1.node[48].veinsmobility posx ETV
vector 236 HighwayScenario1.node[48].veinsmobility posy ETV
vector 237 HighwayScenario1.node[46].veinsmobility acceleration ETV
vector 238 HighwayScenario1.node[46].veinsmobility co2emission ETV
vector 239 HighwayScenario1.node[47].veinsmobility speed ETV
vector 240 HighwayScenario1.node[49].veinsmobility posx ETV
vector 241 HighwayScenario1.node[49].veinsmobility posy ETV
vector 242 HighwayScenario1.node[47].veinsmobility acceleration ETV
vector 243 HighwayScenario1.node[47].veinsmobility co2emission ETV
vector 244 HighwayScenario1.node[48].veinsmobility speed ETV
0	18189 2075 10 11337 9 87 79 30.1 1997.300726948 96727.456861876 152825705.75215
1	20264 1315 10 11337 9 87 79 29.95 29.95 2366.05 70863.1975
2	21579 2004 11 11337 10 87 78 0 34.085832217641 1967.2903496057 64287.669445375
3	23583 2027 12 11337 11 87 77 30.1 1789.5770263091 88438.393983216 128982109.37074
4	25610 1286 12 11337 11 87 77 26.65 29.95 2276.45 67388.1725
5	26896 2049 12 11337 11 87 77 -8 2.1870022302028 -33.227394424698 321.5576699449
6	28945 1895 12 11337 11 87 77 -1.3816585421428 15.843393251592 386.18857486983 3643.7763939663
7	30840 2001 13 11337 12 87 76 30.1 1607.3721037927 81551.630890867 109432999.26471
8	32841 1271 13 11337 12 87 76 29.95 29.95 2276.2 68172.19
9	34112 1940 13 11337 12 87 76 0 34.015164111371 1759.4770263091 57104.830644721
10	36052 2054 14 11337 13 87 75 30.1 1245.2139624447 66630.054109639 71577223.669703
11	38106 1331 14 11337 13 87 75 26.65 29.95 2233.05 66528.0675
12	39437 2109 14 11337 13 87 75 -8 2.297349665605 -33.666398097449 325.60750516712
13	41546 1897 14 11337 13 87 75 -2.3292455230774 15.316843844227 341.77022983733 2835.5061972412
14	43443 1960 14 11337 13 87 75 0 33.731971482017 1578.0817496396 50401.206368644
15	45403 2047 15 11337 14 87 74 -8 2.4888359193574 -32.509807705266 332.53011683461
16	47450 1818 15 11337 14 87 74 -2.1876427905797 25.821204849023 333.40109214995 3170.5376627487
17	49268 1855 15 11337 14 87 74 0 31.125904108918 1215.2032437572 35323.295314666
18	51123 2004 16 11337 15 87 73 30.1 964.15502113926 53435.138385362 45644209.364043
19	53127 1299 16 11337 15 87 73 29.95 29.95 2186.35 65481.1825
20	54426 1946 16 11337 15 87 73 -8 2.0321297712508 -30.042196850202 295.85140712316
21	56372 1739 16 11337 15 87 73 -0.56222706905305 13.351527411285 246.90724264224 1608.9998433892
22	58111 1714 17 11337 16 87 72 0 30.425612538806 934.38250327052 26103.187964165
23	59825 1940 18 11337 17 87 71 30.1 631.35941032358 37387.121790585 21788643.464387
24	61765 1267 18 11337 17 87 71 26.65 29.95 2063.75 60138.3575
25	63032 1822 18 11337 17 87 71 -8 2.4681283079553 -29.18593480395 306.860792166
26	64854 1638 18 11337 17 87 71 -0.16824813471591 12.752220181473 204.74747990247 1174.6522509086
27	66492 1914 19 11337 18 87 70 30.1 280.15542216638 16931.823318351 4305335.7581375
28	68406 1251 19 11337 18 87 70 26.65 29.95 2080 61856.275
29	69657 1567 19 11337 18 87 70 0 31.904039998454 601.25941032358 17058.482525481
30	71224 1680 20 11337 19 87 69 -8 2.3957219565636 -30.927886148248 299.79090948793
31	72904 1493 20 11337 19 87 69 -1.5173062106756 10.7287704004 150.86528335757 712.65465489624
32	74397 1525 20 11337 19 87 69 0 32.118278612042 250.05542216638 5670.3525511028
33	75922 1856 21 11337 20 87 68 30.1 230.774328292 13518.86531317 2804799.6289208
34	77778 1219 21 11337 20 87 68 26.65 29.95 2026.7 60435.83
35	78997 1638 21 11337 20 87 68 -8 2.4728890959523 -28.325111409198 359.31779614234
36	80635 1418 21 11337 20 87 68 0.973 16.224354136452 134.45311404872 792.68072914775
37	82053 1847 22 11337 21 87 67 30.1 2884.5935332832 88688.552285677 167612200.50695
38	83900 1203 22 11337 21 87 67 26.65 29.95 1795.45 48145.2475
39	85103 1489 22 11337 21 87 67 0 31.670424632737 200.674328292 4199.2412787622
40	86592 1815 76 11337 22 87 66 30.1 155.04645609211 8817.8155676633 1217606.3109924
41	88407 1187 76 11337 22 87 66 26.65 29.95 1970.1 58828.605
42	89594 1627 76 11337 22 87 66 -7.9381007629563 2.498490534781 -31.670424632737 317.97312498325
43	91221 1355 76 11337 22 87 66 0.973 11.019901612745 95.709003523402 271.34697078859
44	92576 1839 76 11337 22 87 66 26.272369076207 49.91039696685 2904.3754065791 131520.63126913
45	94415 1796 136 11337 23 87 65 30.1 167.78295596598 9261.0432632047 1369354.5285616
46	96211 1171 136 11337 23 87 65 26.65 29.95 1917.05 56624.1425
47	97382 1860 136 11337 23 87 65 -7 1.9663749062456 22.548332061066 169.99244871999
48	99242 1786 136 11337 23 87 65 0.973 35.47760912281 1102.3581490234 22074.263647089
49	101028 1711 136 11337 23 87 65 0 26.684322815108 125.77831150555 2056.1860145117
50	102739 1764 202 11337 24 87 64 30.1 2838.4291398834 79487.402911581 152109844.31074
51	104503 1154 202 11337 24 87 64 26.65 29.95 1758.4 48442.72
52	105657 1778 202 11337 24 87 64 -7.8854255055995 2.4847860453883 -24.551153988246 244.40998437549
53	107435 1417 202 11337 24 87 64 0.973 12.521155698416 87.950048375388 260.97637815311
54	108852 1479 202 11337 24 87 64 0 29.541503654122 137.68295596598 2136.6216001432
55	110331 1741 341 11337 25 87 63 30.1 134.14266133956 7368.7214152981 888566.73482641
56	112072 1137 341 11337 25 87 63 26.65 29.95 1880.25 56137.5975
57	113209 1563 341 11337 25 87 63 -8 2.4941520614084 -29.541503654122 333.19914982037
58	114772 1295 341 11337 25 87 63 0.973 4.9874579890455 83.782524270413 153.1979365116
59	116067 1761 341 11337 25 87 63 1.422329598633 59.618130856419 2855.9206190578 145868.97967677
60	117828 1715 488 11337 26 87 62 30.1 145.05949708195 7678.8905920391 985131.39067087
61	119543 1120 488 11337 26 87 62 26.65 29.95 1820.6 53559.575
62	120663 1788 488 11337 26 87 62 -7.8476890164486 4.4320792963961 20.622898133678 735.09094258449
63	122451 1615 488 11337 26 87 62 -7.278057045624 78.107778399042 1574.996838404 79502.689076226
64	124066 1714 488 11337 26 87 62 0 23.583886700063 104.05610274816 1499.718247173
65	125780 1740 647 11337 27 87 61 -8 2.3261591320625 -21.634394308842 197.58338939097
66	127520 1371 647 11337 27 87 61 0.973 14.463418178962 82.645784751248 292.60417850889
67	128891 1385 647 11337 27 87 61 0 26.822226949276 115.92409912935 1479.676907899
68	130276 1474 806 11337 28 87 60 -8 2.3826319130603 -25.857624901884 257.08425864102
69	131750 1276 806 11337 28 87 60 0.973 4.8657472658989 79.255756604997 138.65562004244
70	133026 1570 1279 11337 31 87 57 30.1 126.52954828221 6291.8820420477 715551.73358862
71	134596 1034 1279 11337 31 87 57 26.65 29.95 1684.05 49821.6825
72	135630 1638 1450 11337 32 87 56 0.0012766997736406 26.431212672701 96.485715495375 1387.8843801264
73	137268 1645 1617 11337 33 87 55 -6.653814877872 1.3839718190167 -26.375045459532 164.0812521443
74	138913 1296 1617 11337 33 87 55 0.973 1.6661639830015 60.901530876764 68.97049149426
75	140209 1410 2245 11337 37 87 51 30.1 1569.8553333237 40060.811749663 42347397.201511
76	141619 926 2245 11337 37 87 51 26.65 26.65 1359.15 36221.3475
77	142545 1375 2400 11337 38 87 50 30.1 1528.1367451964 38017.914692702 39072955.479257
78	143920 908 2400 11337 38 87 50 26.65 26.65 1332.5 35511.125
79	144828 1405 2400 11337 38 87 50 30.823619319432 32.032235425737 1571.1504030174 49376.795461985
80	146233 1353 2559 11337 39 87 49 30.1 1486.1721894334 36038.931770261 35981425.807428
81	147586 890 2559 11337 39 87 49 26.65 26.65 1305.85 34800.9025
82	148476 1450 2559 11337 39 87 49 -1.2052480029524 1.1990462770336 -0.43509335955605 18.417083481553
83	149926 1355 2559 11337 39 87 49 -0.64881786945597 14.945729972306 279.67443508362 2542.602882613
84	151281 1377 2559 11337 39 87 49 29.321792833931 32.209559735513 1529.6598480274 47769.118970222
85	152658 1322 2726 11337 40 87 48 30.1 1443.8141300426 34110.377332618 33063212.651062
86	153980 872 2726 11337 40 87 48 26.65 26.65 1279.2 34090.68
87	154852 1421 2726 11337 40 87 48 -1.2803625104731 1.2743555705191 1.7314249187402 18.643530652069
88	156273 1341 2726 11337 40 87 48 -1.5565642295549 15.642911211414 285.11145629827 2670.4058081533
89	157614 1347 2726 11337 40 87 48 27.766432255487 32.467730992468 1486.7965871064 46100.180300943
90	158961 1300 2897 11337 41 87 47 30.1 1402.3744406414 32238.47681085 30311584.069793
91	160261 854 2897 11337 41 87 47 26.65 26.65 1252.55 33380.4575
92	161115 1388 2897 11337 41 87 47 -1.3506786475351 1.5547566360094 2.9579654175182 25.691854175151
93	162503 1296 2897 11337 41 87 47 -1.2419230473393 18.00354076721 291.66088798398 3070.833538129
94	163799 1318 2897 11337 41 87 47 25.169646523914 32.788025121424 1445.3746640044 44553.704042799
95	165117 1265 3080 11337 42 87 46 30.1 1201.0675229177 27374.69280065 22125608.732601
96	166382 836 3080 11337 42 87 46 26.65 26.65 1225.9 32670.235
97	167218 1357 3080 11337 42 87 46 -1.5893108800757 2.0649233692218 6.4908874378665 41.115125092952
98	168575 1247 3080 11337 42 87 46 -1.0133763477327 20.465492218993 321.38632147271 4060.7017954609
99	169822 1294 3080 11337 42 87 46 22.785758655388 32.586833589361 1403.9090450588 43020.508066969
100	171116 1289 3263 11337 43 87 45 30.1 1164.6581082801 25706.917879451 20143584.281891
101	172405 863 3263 11337 43 87 45 26.65 26.65 1199.25 31960.0125
102	173268 1356 3263 11337 43 87 45 -2.2154551437362 2.1665555657198 8.8488457620243 49.642389545797
103	174624 1253 3263 11337 43 87 45 -1.1073477823722 20.268668442154 342.27726482037 4327.9724418307
104	175877 1310 3263 11337 43 87 45 19.607301850902 27.548525916986 1197.7932979707 31977.221071559
105	177187 1255 3438 11337 44 87 44 30.1 1127.5328137114 23911.5269232 18186260.1062
106	178442 844 3438 11337 44 87 44 26.65 26.65 1172.6 31249.79
107	179286 1347 3438 11337 44 87 44 -0.97768216801342 2.2134758462198 7.2184732021505 21.559730296273
108	180633 1255 3438 11337 44 87 44 -0.25685461687175 17.188501110748 234.02103480992 1885.8524383352
109	181888 1277 3438 11337 44 87 44 16.158995202663 28.998658912666 1160.6720154373 30898.6846209
110	183165 1230 3605 11337 45 87 43 30.1 1088.5620410845 21288.792363486 15544610.671181
111	184395 825 3605 11337 45 87 43 26.65 26.65 1145.95 30539.5675
112	185220 1308 3605 11337 45 87 43 -1.3806768914056 2.4884499123436 9.9549119544891 43.265669514149
113	186528 1192 3605 11337 45 87 43 -0.67996662174377 18.082989150878 259.47221620886 2707.2567562713
114	187720 1248 3605 11337 45 87 43 12.2186082068 30.183465866066 1123.8450823172 30095.970847779
115	188968 1263 3768 11337 46 87 42 -1.8929632137579 2.4619337928016 14.193660398995 63.988146710845
116	190231 1151 3768 11337 46 87 42 -0.51839230821074 20.163867215372 296.15028779148 3336.0627737029
117	191382 1222 3768 11337 46 87 42 7.4586328755699 31.067234127082 1086.6182031196 29955.004014788
118	192604 1170 3927 11337 47 87 41 30.1 1050.6219865987 19767.114944769 13962759.633794
119	193774 787 3927 11337 47 87 41 26.65 26.65 1092.65 29119.1225
120	194561 1226 3927 11337 47 87 41 -2.5315716989213 2.4289399088593 20.697529159519 63.420892774699
121	195787 1156 3927 11337 47 87 41 -0.84664969029307 15.230494548453 305.05807589205 3269.279051771
122	196943 1140 4086 11337 48 87 40 30.1 878.01670784815 14184.112071223 8115423.5219629
123	198083 768 4086 11337 48 87 40 26.65 26.65 1066 28408.9
124	198851 1165 4086 11337 48 87 40 7.9993516099678 31.540425436163 1048.0337100182 29065.315985519
125	200016 1171 4253 11337 49 87 39 -2.1913440046572 2.4586567637743 19.512371809543 74.055512510908
126	201187 1081 4253 11337 49 87 39 -1.2908290282761 20.236643762347 303.62090122266 3825.7077581814
127	202268 1138 4253 11337 49 87 39 0.32179855460548 30.242717631108 877.57550513868 23407.798830024
128	203406 1142 4416 11337 50 87 38 -1.1097101258929 2.4696085019968 29.336998735925 56.747704616663
129	204548 1100 4416 11337 50 87 38 -1.062180763378 21.060864881443 261.77844760877 2611.3216436645
130	205648 1054 4583 11337 51 87 37 30.1 1012.6422738914 17937.900671648 12186966.040984
131	206702 711 4583 11337 51 87 37 26.65 29.95 999.25 27025.3525
132	207413 1026 4754 11337 52 87 36 30.1 707.8595950566 9788.4478178082 4307914.016713
133	208439 692 4754 11337 52 87 36 26.65 26.65 959.4 25568.01
134	209131 1049 4754 11337 52 87 36 14.97407325598 31.375537380719 1009.9836268934 28969.573606
135	210180 1000 4925 11337 53 87 35 30.1 976.46806154563 16371.516514196 10758673.144354
136	211180 673 4925 11337 53 87 35 26.65 29.95 945.95 25604.9075
137	211853 1048 4925 11337 53 87 35 -8 2.3846747874632 -2.4705287077302 151.54494836179
138	212901 971 4925 11337 53 87 35 -0.28700673206276 17.889941089869 241.987792949 2666.596928447
139	213872 1020 4925 11337 53 87 35 2.2228498121508 31.730065149059 707.87680383678 17792.418813713
140	214892 970 5104 11337 54 87 34 30.1 748.54582286483 10800.781814342 5087271.5340803
141	215862 654 5104 11337 54 87 34 26.65 29.95 925.9 25268.245
142	216516 1007 5104 11337 54 87 34 -3.1142842722023 2.4688190882443 27.894358968025 91.305069698948
143	217523 941 5104 11337 54 87 34 0.973 23.223766102673 267.31384284206 3141.1290738311
144	218464 988 5104 11337 54 87 34 15.833437276608 33.807869169735 973.45760020762 28515.567242743
145	219452 996 5287 11337 55 87 33 -6.917561613877 2.4804924160708 -0.93190791785425 127.13140149453
146	220448 908 5287 11337 55 87 33 -1.3412222851418 21.81962077065 238.28445899082 3424.9991711222
147	221356 962 5287 11337 55 87 33 2.8746726085347 30.554322044016 747.93831024848 19488.206274951
148	222318 910 5466 11337 56 87 32 30.1 118.34232663248 3315.8056028919 360152.0850384
149	223228 616 5466 11337 56 87 32 29.95 29.95 958.4 28704.08
150	223844 964 5466 11337 56 87 32 -7.9566879271251 2.4504805964534 3.7559413008372 221.42289246201
151	224808 896 5466 11337 56 87 32 -0.66519178386619 19.85873731267 225.01532750633 2539.0820938059
152	225704 936 5649 11337 57 87 31 0.0036095020399684 24.241614894187 88.844939765585 1457.6924975876
153	226640 935 5828 11337 58 87 30 -7.9808801659903 0.96782658902958 -23.639001761083 137.06580919473
154	227575 736 5828 11337 58 87 30 0.973 1.3874954807012 32.316404383206 35.206064133041
155	228311 826 6007 11337 59 87 29 30.1 392.69760758248 4559.1983885674 978319.539428
156	229137 559 6007 11337 59 87 29 26.65 29.95 809.15 22651.0325
157	229696 795 6190 11337 60 87 28 30.1 667.95528757562 8384.781816547 3604084.785256
158	230491 540 6190 11337 60 87 28 26.65 29.95 756.1 20446.57
159	231031 820 6190 11337 60 87 28 0.012056843503568 32.231149108551 393.74145898085 8809.9015597857
160	231851 765 6377 11337 61 87 27 30.1 540.55628437664 5935.9557090379 1930408.0427131
161	232616 521 6377 11337 61 87 27 26.65 29.95 739.35 20296.6875
162	233137 803 6377 11337 61 87 27 -7.7431267734391 2.3753338176175 5.4031195501018 213.54730690248
163	233940 707 6377 11337 61 87 27 0.973 21.542976573389 190.68045650235 2495.8020554917
164	234647 787 6377 11337 61 87 27 13.546351022359 31.26330503928 667.83663386239 17569.640412733
165	235434 736 6564 11337 62 87 26 30.1 628.52480006415 7373.5311438154 2996156.9616511
166	236170 502 6564 11337 62 87 26 26.65 29.95 699.5 18839.345
167	236672 779 6564 11337 62 87 26 -5.5328755648298 2.3152391606709 7.209690223419 87.54931082493
168	237451 702 6564 11337 62 87 26 -1.4041773856243 21.184369125109 212.1712959293 2685.0397690541
169	238153 759 6564 11337 62 87 26 2.0207092712745 33.89962595118 543.78316854995 13902.116334255
170	238912 708 6751 11337 63 87 25 30.1 173.01007480486 2536.5714404026 284685.99156956
171	239620 483 6751 11337 63 87 25 26.65 29.95 719.05 20744.0425
172	240103 728 6751 11337 63 87 25 -8 2.4596583889797 13.180601508613 191.49637052036
173	240831 702 6751 11337 63 87 25 -0.035577282745797 22.753702953596 230.8737060492 3031.1124531942
174	241533 732 6751 11337 63 87 25 16.188313988438 31.484720435449 628.67063867785 16644.464540726
175	242265 717 6942 11337 64 87 24 -2.8552510085642 2.3934586739051 13.381935054401 56.102556760034
176	242982 653 6942 11337 64 87 24 -0.75391749765883 22.158829145669 216.55010760126 3011.7812730733
177	243635 711 6942 11337 64 87 24 0.015751051343464 19.790871777942 159.92216284007 1983.5022446207
178	244346 695 7133 11337 65 87 23 -6.8181430598741 2.4616736889584 -2.7787837427324 143.58914345192
179	245041 584 7133 11337 65 87 23 0.973 12.478137905705 71.804219221587 430.10532245213
180	245625 594 7515 11337 67 87 21 30.1 328.03705445245 3191.9027700347 635488.90970354
181	246219 407 7515 11337 67 87 21 26.65 29.95 572.85 15661.7925
182	246626 565 7710 11337 68 87 20 30.1 110.32670422895 1791.992132331 172368.83768578
183	247191 388 7710 11337 68 87 20 29.95 29.95 599 17940.05
184	247579 586 7710 11337 68 87 20 4.9250111827373 29.479642622997 327.41669707544 6432.7170333999
185	248165 565 7905 11337 69 87 19 -7.7148937055007 2.4179939134046 4.2915441663074 172.90837053835
186	248730 516 7905 11337 69 87 19 0.973 21.073844442702 151.36585928657 1818.3004207975
187	249246 567 7905 11337 69 87 19 0.055618096261011 22.345014320908 80.539565226973 1095.5625179403
188	249813 508 8096 11337 70 87 18 30.1 287.15420583296 2518.8111895693 455530.04940272
189	250321 350 8096 11337 70 87 18 26.65 29.95 492.9 13531.125
190	250671 554 8096 11337 70 87 18 -6.6770818895938 1.5784017779515 -22.03215332288 142.90582675052
191	251225 420 8096 11337 70 87 18 0.973 2.5649746938469 22.238878003827 31.888978957587
192	251645 479 8291 11337 71 87 17 30.1 144.26242060207 1526.9448015881 154051.00811437
193	252124 331 8291 11337 71 87 17 26.65 29.95 476.15 13381.2425
194	252455 499 8291 11337 71 87 17 9.5736008701367 27.284164011956 284.33836984492 5245.7929580931
195	252954 450 8490 11337 72 87 16 30.1 250.47388212937 1994.0045960741 322214.54248847
196	253404 312 8490 11337 72 87 16 26.65 29.95 436.3 11923.9
197	253716 478 8490 11337 72 87 16 -5.6342435447131 2.3295537472586 6.8964293594391 77.73270365202
198	254194 441 8490 11337 72 87 16 0.973 18.136270396903 119.19225238416 1375.8582329551
199	254635 472 8490 11337 72 87 16 0.85277954779617 16.979473241389 128.01053984114 1478.4691773385
200	255107 451 8689 11337 73 87 15 -7.514798750116 2.1945299083018 -3.1313540023227 128.00340251397
201	255558 379 8689 11337 73 87 15 0.973 9.3473770725932 46.204617352954 237.29851716741
202	255937 441 8689 11337 73 87 15 12.143714661316 25.034683072134 245.40856520151 4245.7030580286
203	256378 391 8884 11337 74 87 14 30.1 102.58043925947 1130.4409519261 99691.665065893
204	256769 274 8884 11337 74 87 14 29.95 29.95 419.3 12558.035
205	257043 425 8884 11337 74 87 14 -3.2564897470234 2.4289034219692 11.339876832109 38.020032236254
206	257468 404 8884 11337 74 87 14 0.973 17.976713311277 99.812659015469 1078.6583209742
207	257872 362 9083 11337 75 87 13 30.1 94.002751929923 947.92031996916 75278.775211822
208	258234 255 9083 11337 75 87 13 29.95 29.95 389.35 11661.0325
209	258489 388 9083 11337 75 87 13 0.17307870641093 23.903649646997 72.653517965881 1026.3503360209
210	258877 331 9286 11337 76 87 12 30.1 123.96631529948 972.6486844855 89563.066543654
211	259208 236 9286 11337 76 87 12 26.65 29.95 326.4 8896.23
212	259444 370 9286 11337 76 87 12 -7.9202475633961 2.2449099266669 -23.730570940586 174.12557033281
213	259814 286 9286 11337 76 87 12 0.973 3.0419572721515 16.396627726876 28.465544863006
214	260100 358 9286 11337 76 87 12 0.80345522546184 20.947737958778 64.854876343686 776.00777866463
215	260458 339 9489 11337 77 87 11 -7.5187911571715 2.1106424127356 -19.995613545015 152.51171061775
216	260797 267 9489 11337 77 87 11 0.973 4.2135629061465 18.261102181513 43.698895362504
217	261064 324 9489 11337 77 87 11 3.4291887211492 18.984545669947 105.60272693565 1288.159255589
218	261388 274 9688 11337 78 87 10 30.1 105.62647305454 710.27762016075 57075.257191502
219	261662 198 9688 11337 78 87 10 26.65 29.95 279.7 7849.345
220	261860 303 9688 11337 78 87 10 -7.0613114289902 2.3907716316171 -6.5829757973765 97.854794706869
221	262163 258 9688 11337 78 87 10 0.973 8.1032579434432 34.611757578692 180.46259597569
222	262421 268 9891 11337 79 87 9 4.7751547883143 18.809614161034 84.918491825953 978.02306701465
223	262689 247 10094 11337 80 87 8 -7.1636079958895 2.344638882787 -9.4175953896187 88.123716771053
224	262936 198 10094 11337 80 87 8 0.973 6.946639196656 20.773063966491 91.719435883234
225	263134 188 10297 11337 81 87 7 30.1 89.618636389528 432.52328008022 30375.838763291
226	263322 140 10297 11337 81 87 7 26.65 29.95 203.05 5905.4575
227	263462 178 10502 11337 82 87 6 4.6640667772373 22.677283897024 66.57996009572 970.30293210597
228	263640 154 10705 11337 83 87 5 -7.5223917063144 1.6249443707056 -15.615960190832 116.20962875973
229	263794 120 10705 11337 83 87 5 0.973 3.8992099740109 9.6156795626374 25.869861520716
230	263914 98 10888 11337 84 87 4 30.1 67.796739341911 179.77753573399 9089.6687403925
231	264012 80 10888 11337 84 87 4 29.95 29.95 119.8 3588.01
232	264092 68 11047 11337 85 87 3 30.1 48.992448425916 109.19244842592 4212.2800027661
233	264160 60 11047 11337 85 87 3 26.65 29.95 86.55 2504.2275
234	264220 89 11047 11337 85 87 3 12.41095614355 21.680796392074 50.107695485462 880.59919316414
235	264309 38 11194 11337 86 87 2 30.1 30.1 60.2 1812.02
236	264347 40 11194 11337 86 87 2 29.95 29.95 59.9 1794.005
237	264387 62 11194 11337 86 87 2 -5.6648534422371 -3.6049868062867 -9.2698402485237 45.086494395526
238	264449 40 11194 11337 86 87 2 0.973 0.973 1.946 1.893458
239	264489 60 11194 11337 86 87 2 18.762614735485 18.892448425916 37.655063161401 708.96031923815
240	264549 19 11337 11337 87 87 1 30.1 30.1 30.1 906.00999999999
241	264568 20 11337 11337 87 87 1 29.95 29.95 29.95 897.0025
242	264588 31 11337 11337 87 87 1 -0.1298336904316 -0.1298336904316 -0.1298336904316 0.016856787171087
243	264619 29 11337 11337 87 87 1 2.038200536129 2.038200536129 2.038200536129 4.1542614254764
244	264648 30 11337 11337 87 87 1 20.129903910884 20.129903910884 20.129903910884 405.21303146141
vector 245 HighwayScenario1.node[50].veinsmobility posx ETV
vector 246 HighwayScenario1.node[50].veinsmobility posy ETV
vector 247 HighwayScenario1.node[48].veinsmobility acceleration ETV
vector 248 HighwayScenario1.node[48].veinsmobility co2emission ETV
vector 249 HighwayScenario1.node[49].veinsmobility speed ETV
vector 250 HighwayScenario1.node[51].veinsmobility posx ETV
vector 251 HighwayScenario1.node[51].veinsmobility posy ETV
vector 252 HighwayScenario1.node[49].veinsmobility acceleration ETV
vector 253 HighwayScenario1.node[49].veinsmobility co2emission ETV
vector 254 HighwayScenario1.node[50].veinsmobility speed ETV
vector 255 HighwayScenario1.node[50].veinsmobility acceleration ETV
vector 256 HighwayScenario1.node[50].veinsmobility co2emission ETV
vector 257 HighwayScenario1.node[51].veinsmobility speed ETV
vector 258 HighwayScenario1.node[52].veinsmobility posx ETV
vector 259 HighwayScenario1.node[52].veinsmobility posy ETV
vector 260 HighwayScenario1.node[51].veinsmobility acceleration ETV
vector 261 HighwayScenario1.node[51].veinsmobility co2emission ETV
vector 262 HighwayScenario1.node[53].veinsmobility posx ETV
vector 263 HighwayScenario1.node[53].veinsmobility posy ETV
vector 264 HighwayScenario1.node[52].veinsmobility speed ETV
vector 265 HighwayScenario1.node[54].veinsmobility posx ETV
vector 266 HighwayScenario1.node[54].veinsmobility posy ETV
vector 267 HighwayScenario1.node[52].veinsmobility acceleration ETV
vector 268 HighwayScenario1.node[52].veinsmobility co2emission ETV
vector 269 HighwayScenario1.node[53].veinsmobility speed ETV
vector 270 HighwayScenario1.node[53].veinsmobility acceleration ETV
vector 271 HighwayScenario1.node[53].veinsmobility co2emission ETV
vector 272 HighwayScenario1.node[54].veinsmobility speed ETV
vector 273 HighwayScenario1.node[55].veinsmobility posx ETV
vector 274 HighwayScenario1.node[55].veinsmobility posy ETV
vector 275 HighwayScenario1.node[54].veinsmobility acceleration ETV
vector 276 HighwayScenario1.node[54].veinsmobility co2emission ETV
vector 277 HighwayScenario1.node[55].veinsmobility speed ETV
vector 278 HighwayScenario1.node[55].veinsmobility acceleration ETV
vector 279 HighwayScenario1.node[55].veinsmobility co2emission ETV
vector 280 HighwayScenario1.node[56].veinsmobility posx ETV
vector 281 HighwayScenario1.node[56].veinsmobility posy ETV
vector 282 HighwayScenario1.node[57].veinsmobility posx ETV
vector 283 HighwayScenario1.node[57].veinsmobility posy ETV
vector 284 HighwayScenario1.node[56].veinsmobility speed ETV
vector 285 HighwayScenario1.node[58].veinsmobility posx ETV
vector 286 HighwayScenario1.node[58].veinsmobility posy ETV
vector 287 HighwayScenario1.node[56].veinsmobility acceleration ETV
vector 288 HighwayScenario1.node[56].veinsmobility co2emission ETV
vector 289 HighwayScenario1.node[57].veinsmobility speed ETV
vector 290 HighwayScenario1.node[57].veinsmobility acceleration ETV
vector 291 HighwayScenario1.node[57].veinsmobility co2emission ETV
vector 292 HighwayScenario1.node[58].veinsmobility speed ETV
vector 293 HighwayScenario1.node[58].veinsmobility acceleration ETV
vector 294 HighwayScenario1.node[58].veinsmobility co2emission ETV
vector 295 HighwayScenario1.node[59].veinsmobility posx ETV
vector 296 HighwayScenario1.node[59].veinsmobility posy ETV
vector 297 HighwayScenario1.node[60].veinsmobility posx ETV
vector 298 HighwayScenario1.node[60].veinsmobility posy ETV
vector 299 HighwayScenario1.node[59].veinsmobility speed ETV
vector 300 HighwayScenario1.node[61].veinsmobility posx ETV
vector 301 HighwayScenario1.node[61].veinsmobility posy ETV
vector 302 HighwayScenario1.node[59].veinsmobility acceleration ETV
vector 303 HighwayScenario1.node[59].veinsmobility co2emission ETV
vector 304 HighwayScenario1.node[60].veinsmobility speed ETV
vector 305 HighwayScenario1.node[62].veinsmobility posx ETV
vector 306 HighwayScenario1.node[62].veinsmobility posy ETV
vector 307 HighwayScenario1.node[60].veinsmobility acceleration ETV
vector 308 HighwayScenario1.node[60].veinsmobility co2emission ETV
vector 309 HighwayScenario1.node[61].veinsmobility speed ETV
vector 310 HighwayScenario1.node[61].veinsmobility acceleration ETV
vector 311 HighwayScenario1.node[61].veinsmobility co2emission ETV
vector 312 HighwayScenario1.node[62].veinsmobility speed ETV
vector 313 HighwayScenario1.node[62].veinsmobility acceleration ETV
vector 314 HighwayScenario1.node[62].veinsmobility co2emission ETV
vector 315 HighwayScenario1.node[63].veinsmobility posx ETV
vector 316 HighwayScenario1.node[63].veinsmobility posy ETV
vector 317 HighwayScenario1.node[63].veinsmobility speed ETV
vector 318 HighwayScenario1.node[64].veinsmobility posx ETV
vector 319 HighwayScenario1.node[64].veinsmobility posy ETV
vector 320 HighwayScenario1.node[63].veinsmobility acceleration ETV
vector 321 HighwayScenario1.node[63].veinsmobility co2emission ETV
vector 322 HighwayScenario1.node[65].veinsmobility posx ETV
vector 323 HighwayScenario1.node[65].veinsmobility posy ETV
vector 324 HighwayScenario1.node[64].veinsmobility speed ETV
vector 325 HighwayScenario1.node[64].veinsmobility acceleration ETV
vector 326 HighwayScenario1.node[64].veinsmobility co2emission ETV
vector 327 HighwayScenario1.node[65].veinsmobility speed ETV
vector 328 HighwayScenario1.node[65].veinsmobility acceleration ETV
vector 329 HighwayScenario1.node[65].veinsmobility co2emission ETV
vector 330 HighwayScenario1.node[66].veinsmobility posx ETV
vector 331 HighwayScenario1.node[66].veinsmobility posy ETV
63	270272 1065 11474 15122 88 124 37 0.973 86.833089974805 1091.9599857036 47303.459691117
62	271337 1151 11474 15122 88 124 37 -4.8741225944266 4.3975562425608 11.985303122056 167.53938319662
59	272488 1096 11474 15122 88 124 37 46.937299298693 59.660106301079 2127.7759572988 122946.35376856
51	273584 728 11474 15122 88 124 37 26.65 29.95 1005.85 27398.9125
50	274312 1096 11474 15122 88 124 37 2886.0206190578 4954.2197940601 144009.26145941 574854392.41082
vector 332 HighwayScenario1.node[67].veinsmobility posx ETV
vector 333 HighwayScenario1.node[67].veinsmobility posy ETV
vector 334 HighwayScenario1.node[66].veinsmobility speed ETV
vector 335 HighwayScenario1.node[68].veinsmobility posx ETV
vector 336 HighwayScenario1.node[68].veinsmobility posy ETV
vector 337 HighwayScenario1.node[66].veinsmobility acceleration ETV
vector 338 HighwayScenario1.node[66].veinsmobility co2emission ETV
vector 339 HighwayScenario1.node[67].veinsmobility speed ETV
vector 340 HighwayScenario1.node[67].veinsmobility acceleration ETV
vector 341 HighwayScenario1.node[67].veinsmobility co2emission ETV
vector 342 HighwayScenario1.node[68].veinsmobility speed ETV
vector 343 HighwayScenario1.node[68].veinsmobility acceleration ETV
vector 344 HighwayScenario1.node[68].veinsmobility co2emission ETV
48	276249 1247 11474 15269 88 129 42 3.9490710327542 25.00453745124 617.94916045549 10212.551691252
47	277496 1313 11474 15269 88 129 42 -0.88017426780425 0.83185328403488 -0.026956187328324 7.4116502658486
44	278809 1239 11474 15269 88 129 42 49.002005996415 49.97864131676 2078.7740396229 102891.69801069
38	280048 828 11474 15269 88 129 42 26.65 29.95 1238.1 36553.425
37	280876 1245 11474 15269 88 129 42 2934.4754065791 4963.3945290934 165852.45853336 670029996.31405
vector 345 HighwayScenario1.node[69].veinsmobility posx ETV
vector 346 HighwayScenario1.node[69].veinsmobility posy ETV
vector 347 HighwayScenario1.node[70].veinsmobility posx ETV
vector 348 HighwayScenario1.node[70].veinsmobility posy ETV
vector 349 HighwayScenario1.node[69].veinsmobility speed ETV
vector 350 HighwayScenario1.node[69].veinsmobility acceleration ETV
vector 351 HighwayScenario1.node[69].veinsmobility co2emission ETV
vector 352 HighwayScenario1.node[70].veinsmobility speed ETV
vector 353 HighwayScenario1.node[70].veinsmobility acceleration ETV
vector 354 HighwayScenario1.node[70].veinsmobility co2emission ETV
vector 355 HighwayScenario1.node[71].veinsmobility posx ETV
vector 356 HighwayScenario1.node[71].veinsmobility posy ETV
vector 357 HighwayScenario1.node[71].veinsmobility speed ETV
vector 358 HighwayScenario1.node[72].veinsmobility posx ETV
vector 359 HighwayScenario1.node[72].veinsmobility posy ETV
vector 360 HighwayScenario1.node[71].veinsmobility acceleration ETV
vector 361 HighwayScenario1.node[71].veinsmobility co2emission ETV
vector 362 HighwayScenario1.node[72].veinsmobility speed ETV
vector 363 HighwayScenario1.node[72].veinsmobility acceleration ETV
vector 364 HighwayScenario1.node[72].veinsmobility co2emission ETV
vector 365 HighwayScenario1.node[73].veinsmobility posx ETV
vector 366 HighwayScenario1.node[73].veinsmobility posy ETV
vector 367 HighwayScenario1.node[74].veinsmobility posx ETV
vector 368 HighwayScenario1.node[74].veinsmobility posy ETV
vector 369 HighwayScenario1.node[73].veinsmobility speed ETV
vector 370 HighwayScenario1.node[75].veinsmobility posx ETV
vector 371 HighwayScenario1.node[75].veinsmobility posy ETV
vector 372 HighwayScenario1.node[73].veinsmobility acceleration ETV
vector 373 HighwayScenario1.node[73].veinsmobility co2emission ETV
vector 374 HighwayScenario1.node[74].veinsmobility speed ETV
vector 375 HighwayScenario1.node[74].veinsmobility acceleration ETV
vector 376 HighwayScenario1.node[74].veinsmobility co2emission ETV
vector 377 HighwayScenario1.node[75].veinsmobility speed ETV
vector 378 HighwayScenario1.node[76].veinsmobility posx ETV
vector 379 HighwayScenario1.node[76].veinsmobility posy ETV
vector 380 HighwayScenario1.node[75].veinsmobility acceleration ETV
vector 381 HighwayScenario1.node[75].veinsmobility co2emission ETV
vector 382 HighwayScenario1.node[77].veinsmobility posx ETV
vector 383 HighwayScenario1.node[77].veinsmobility posy ETV
vector 384 HighwayScenario1.node[76].veinsmobility speed ETV
vector 385 HighwayScenario1.node[78].veinsmobility posx ETV
vector 386 HighwayScenario1.node[78].veinsmobility posy ETV
vector 387 HighwayScenario1.node[76].veinsmobility acceleration ETV
vector 388 HighwayScenario1.node[76].veinsmobility co2emission ETV
vector 389 HighwayScenario1.node[77].veinsmobility speed ETV
vector 390 HighwayScenario1.node[77].veinsmobility acceleration ETV
vector 391 HighwayScenario1.node[77].veinsmobility co2emission ETV
vector 392 HighwayScenario1.node[78].veinsmobility speed ETV
vector 393 HighwayScenario1.node[79].veinsmobility posx ETV
vector 394 HighwayScenario1.node[79].veinsmobility posy ETV
vector 395 HighwayScenario1.node[78].veinsmobility acceleration ETV
vector 396 HighwayScenario1.node[78].veinsmobility co2emission ETV
vector 397 HighwayScenario1.node[80].veinsmobility posx ETV
vector 398 HighwayScenario1.node[80].veinsmobility posy ETV
vector 399 HighwayScenario1.node[79].veinsmobility speed ETV
vector 400 HighwayScenario1.node[79].veinsmobility acceleration ETV
vector 401 HighwayScenario1.node[79].veinsmobility co2emission ETV
vector 402 HighwayScenario1.node[80].veinsmobility speed ETV
vector 403 HighwayScenario1.node[81].veinsmobility posx ETV
vector 404 HighwayScenario1.node[81].veinsmobility posy ETV
vector 405 HighwayScenario1.node[80].veinsmobility acceleration ETV
vector 406 HighwayScenario1.node[80].veinsmobility co2emission ETV
vector 407 HighwayScenario1.node[81].veinsmobility speed ETV
vector 408 HighwayScenario1.node[82].veinsmobility posx ETV
vector 409 HighwayScenario1.node[82].veinsmobility posy ETV
vector 410 HighwayScenario1.node[81].veinsmobility acceleration ETV
vector 411 HighwayScenario1.node[81].veinsmobility co2emission ETV
vector 412 HighwayScenario1.node[83].veinsmobility posx ETV
vector 413 HighwayScenario1.node[83].veinsmobility posy ETV
vector 414 HighwayScenario1.node[82].veinsmobility speed ETV
vector 415 HighwayScenario1.node[84].veinsmobility posx ETV
vector 416 HighwayScenario1.node[84].veinsmobility posy ETV
vector 417 HighwayScenario1.node[82].veinsmobility acceleration ETV
vector 418 HighwayScenario1.node[82].veinsmobility co2emission ETV
vector 419 HighwayScenario1.node[83].veinsmobility speed ETV
vector 420 HighwayScenario1.node[85].veinsmobility posx ETV
vector 421 HighwayScenario1.node[85].veinsmobility posy ETV
vector 422 HighwayScenario1.node[83].veinsmobility acceleration ETV
vector 423 HighwayScenario1.node[83].veinsmobility co2emission ETV
vector 424 HighwayScenario1.node[84].veinsmobility speed ETV
vector 425 HighwayScenario1.node[86].veinsmobility posx ETV
vector 426 HighwayScenario1.node[86].veinsmobility posy ETV
vector 427 HighwayScenario1.node[84].veinsmobility acceleration ETV
vector 428 HighwayScenario1.node[84].veinsmobility co2emission ETV
vector 429 HighwayScenario1.node[85].veinsmobility speed ETV
vector 430 HighwayScenario1.node[85].veinsmobility acceleration ETV
vector 431 HighwayScenario1.node[85].veinsmobility co2emission ETV
vector 432 HighwayScenario1.node[86].veinsmobility speed ETV
vector 433 HighwayScenario1.node[87].veinsmobility posx ETV
vector 434 HighwayScenario1.node[87].veinsmobility posy ETV
vector 435 HighwayScenario1.node[86].veinsmobility acceleration ETV
vector 436 HighwayScenario1.node[86].veinsmobility co2emission ETV
vector 437 HighwayScenario1.node[87].veinsmobility speed ETV
vector 438 HighwayScenario1.node[88].veinsmobility posx ETV
vector 439 HighwayScenario1.node[88].veinsmobility posy ETV
vector 440 HighwayScenario1.node[87].veinsmobility acceleration ETV
vector 441 HighwayScenario1.node[87].veinsmobility co2emission ETV
vector 442 HighwayScenario1.node[89].veinsmobility posx ETV
vector 443 HighwayScenario1.node[89].veinsmobility posy ETV
vector 444 HighwayScenario1.node[88].veinsmobility speed ETV
vector 445 HighwayScenario1.node[88].veinsmobility acceleration ETV
vector 446 HighwayScenario1.node[88].veinsmobility co2emission ETV
vector 447 HighwayScenario1.node[89].veinsmobility speed ETV
vector 448 HighwayScenario1.node[90].veinsmobility posx ETV
vector 449 HighwayScenario1.node[90].veinsmobility posy ETV
vector 450 HighwayScenario1.node[89].veinsmobility acceleration ETV
vector 451 HighwayScenario1.node[89].veinsmobility co2emission ETV
vector 452 HighwayScenario1.node[91].veinsmobility posx ETV
vector 453 HighwayScenario1.node[91].veinsmobility posy ETV
vector 454 HighwayScenario1.node[90].veinsmobility speed ETV
vector 455 HighwayScenario1.node[90].veinsmobility acceleration ETV
vector 456 HighwayScenario1.node[90].veinsmobility co2emission ETV
vector 457 HighwayScenario1.node[91].veinsmobility speed ETV
vector 458 HighwayScenario1.node[92].veinsmobility posx ETV
vector 459 HighwayScenario1.node[92].veinsmobility posy ETV
vector 460 HighwayScenario1.node[91].veinsmobility acceleration ETV
vector 461 HighwayScenario1.node[91].veinsmobility co2emission ETV
vector 462 HighwayScenario1.node[92].veinsmobility speed ETV
vector 463 HighwayScenario1.node[93].veinsmobility posx ETV
vector 464 HighwayScenario1.node[93].veinsmobility posy ETV
vector 465 HighwayScenario1.node[92].veinsmobility acceleration ETV
vector 466 HighwayScenario1.node[92].veinsmobility co2emission ETV
vector 467 HighwayScenario1.node[93].veinsmobility speed ETV
vector 468 HighwayScenario1.node[93].veinsmobility acceleration ETV
vector 469 HighwayScenario1.node[93].veinsmobility co2emission ETV
vector 470 HighwayScenario1.node[94].veinsmobility posx ETV
vector 471 HighwayScenario1.node[94].veinsmobility posy ETV
vector 472 HighwayScenario1.node[95].veinsmobility posx ETV
vector 473 HighwayScenario1.node[95].veinsmobility posy ETV
vector 474 HighwayScenario1.node[94].veinsmobility speed ETV
vector 475 HighwayScenario1.node[94].veinsmobility acceleration ETV
vector 476 HighwayScenario1.node[94].veinsmobility co2emission ETV
vector 477 HighwayScenario1.node[95].veinsmobility speed ETV
vector 478 HighwayScenario1.node[96].veinsmobility posx ETV
vector 479 HighwayScenario1.node[96].veinsmobility posy ETV
vector 480 HighwayScenario1.node[95].veinsmobility acceleration ETV
vector 481 HighwayScenario1.node[95].veinsmobility co2emission ETV
vector 482 HighwayScenario1.node[96].veinsmobility speed ETV
vector 483 HighwayScenario1.node[97].veinsmobility posx ETV
vector 484 HighwayScenario1.node[97].veinsmobility posy ETV
vector 485 HighwayScenario1.node[96].veinsmobility acceleration ETV
vector 486 HighwayScenario1.node[96].veinsmobility co2emission ETV
vector 487 HighwayScenario1.node[97].veinsmobility speed ETV
vector 488 HighwayScenario1.node[98].veinsmobility posx ETV
vector 489 HighwayScenario1.node[98].veinsmobility posy ETV
vector 490 HighwayScenario1.node[97].veinsmobility acceleration ETV
vector 491 HighwayScenario1.node[97].veinsmobility co2emission ETV
vector 492 HighwayScenario1.node[98].veinsmobility speed ETV
vector 493 HighwayScenario1.node[99].veinsmobility posx ETV
vector 494 HighwayScenario1.node[99].veinsmobility posy ETV
vector 495 HighwayScenario1.node[98].veinsmobility acceleration ETV
vector 496 HighwayScenario1.node[98].veinsmobility co2emission ETV
vector 497 HighwayScenario1.node[99].veinsmobility speed ETV
vector 498 HighwayScenario1.node[100].veinsmobility posx ETV
vector 499 HighwayScenario1.node[100].veinsmobility posy ETV
vector 500 HighwayScenario1.node[99].veinsmobility acceleration ETV
vector 501 HighwayScenario1.node[99].veinsmobility co2emission ETV
vector 502 HighwayScenario1.node[100].veinsmobility speed ETV
vector 503 HighwayScenario1.node[101].veinsmobility posx ETV
vector 504 HighwayScenario1.node[101].veinsmobility posy ETV
vector 505 HighwayScenario1.node[100].veinsmobility acceleration ETV
vector 506 HighwayScenario1.node[100].veinsmobility co2emission ETV
vector 507 HighwayScenario1.node[101].veinsmobility speed ETV
vector 508 HighwayScenario1.node[101].veinsmobility acceleration ETV
vector 509 HighwayScenario1.node[101].veinsmobility co2emission ETV
83	292724 3212 11474 15354 88 195 108 -1.4272989704531 15.014499512924 602.58654408064 5050.6319831752
82	295936 3390 11474 15354 88 195 108 -1.2390533529106 1.2079744314542 -0.30601042002672 29.878532748007
79	299326 3211 11474 15354 88 195 108 30.789579066346 32.028632419257 3394.6437142133 106714.74606114
76	302537 2148 11474 15354 88 195 108 26.65 29.95 3185.1 94074.57
75	304685 3212 11474 15354 88 195 108 1601.2504030174 4964.805057957 354616.23508145 1268130666.0435
88	307897 3191 11474 15355 88 196 109 -1.1017608867947 15.584419628818 638.67915547793 5474.9535744236
87	311088 3421 11474 15355 88 196 109 -1.2077404396003 1.2647753454582 0.57137409146593 34.226142818147
84	314509 3247 11474 15355 88 196 109 30.539539145069 32.235503045396 3444.340051096 108856.7803464
78	317756 2168 11474 15355 88 196 109 26.65 26.65 2904.85 77414.2525
77	319924 3243 11474 15355 88 196 109 1559.7598480274 4971.9054222009 355907.63022435 1269888662.7712
103	323167 3262 11474 15356 88 197 110 -1.1841935789349 26.175388128477 756.27223120891 9103.8000056353
102	326429 3540 11474 15356 88 197 110 -2.6312233593561 2.4267907405738 0.81459558271753 92.776667169715
99	329969 3279 11474 15356 88 197 110 30.401149682653 34.917057073973 3558.0091443504 115253.52661005
91	333248 2188 11474 15356 88 197 110 26.65 29.95 2951.3 79245.155
90	335436 3282 11474 15356 88 197 110 1434.0090450588 4959.5689894091 350213.83519053 1231198098.7461
93	338718 3101 11474 15356 88 197 110 -1.605073972828 24.598556047191 761.05668700881 9628.5940429273
92	341819 3431 11474 15356 88 197 110 -3.1151014454517 2.2564370709006 0.40562503668154 114.85082432521
89	345250 3277 11474 15356 88 197 110 30.027625230854 33.70128919128 3483.0901515778 110336.47244731
81	348527 2188 11474 15356 88 197 110 26.65 29.95 3000.8 82046.855
80	350715 3271 11474 15356 88 197 110 1516.8965871064 4968.8567159745 356385.05427867 1265693729.2772
98	353986 2991 11474 15358 88 199 112 -1.69719760001 27.148902456024 1097.4932296377 20187.797357635
97	356977 3423 11474 15358 88 199 112 -4.7004830909816 2.4807813725783 1.6523806556558 364.87576030364
94	360400 3338 11474 15358 88 199 112 29.457403127019 34.453618961365 3544.228513152 112291.53980748
86	363738 2228 11474 15358 88 199 112 26.65 29.95 3238.9 93926.98
85	365966 3335 11474 15358 88 199 112 1475.4746640044 4986.390262539 362047.08712274 1287759243.6971
113	369301 3707 11474 15368 88 209 122 -1.3080781468721 20.50835239497 756.6403094375 7597.4488458438
112	373008 3937 11474 15368 88 209 122 -1.6299030813018 2.138958210634 6.4145138571383 61.532384635976
109	376945 3753 11474 15368 88 209 122 26.007338064718 33.496823918109 3817.5022984255 120251.02727015
101	380698 2550 11474 15368 88 209 122 26.65 29.95 3521.9 101963.105
100	383248 3759 11474 15368 88 209 122 1190.7720154373 4975.7458928486 367957.48857613 1262927251.4257
121	387007 3964 11474 15378 88 219 132 -1.4571150983278 18.182409239037 744.79876134898 7496.0345909504
120	390971 4247 11474 15378 88 219 132 -1.9759223634971 1.9064103730489 1.9874478780918 86.200913907144
117	395218 4071 11474 15378 88 219 132 25.055425540804 31.135917361067 3888.0711521805 114839.29024121
111	399289 2760 11474 15378 88 219 132 26.65 26.65 3517.8 93749.37
110	402049 4069 11474 15378 88 219 132 1116.7182031196 4974.6457453869 395828.13759296 1355925431.0893
116	406118 3966 11474 15378 88 219 132 -1.2263565798909 14.499583821118 712.12976994454 6060.3028393739
115	410084 4271 11474 15378 88 219 132 -1.6090671797412 1.4555302876128 3.6572852825928 55.973319886776
114	414355 4068 11474 15378 88 219 132 25.688707898647 30.468476976311 3849.6008376445 112496.44500091
106	418423 2760 11474 15378 88 219 132 26.65 29.95 3732.3 105890.07
105	421183 4062 11474 15378 88 219 132 1153.9450823172 4973.4763660733 399783.9951023 1376745805.0261
146	425245 3794 11474 15379 88 220 133 -1.1179739596605 23.238967283532 945.62336084794 11615.617236813
145	429039 4245 11474 15379 88 220 133 -3.6943390445219 2.3567647911841 3.4968011023321 176.98699041195
144	433284 4097 11474 15379 88 220 133 24.470583998753 34.090526507829 3991.4448024325 120463.63792119
136	437381 2781 11474 15379 88 220 133 26.65 26.65 3544.45 94459.5925
135	440162 4097 11474 15379 88 220 133 1003.5576002076 4964.4160628758 389492.27527194 1321962756.5768
126	444259 3773 11474 15380 88 221 134 -0.87986523448572 24.756222661788 965.88742184538 13692.888497158
125	448032 4266 11474 15380 88 221 134 -2.9492513943394 2.4974192105583 3.6605836831529 220.21053571515
124	452298 4126 11474 15380 88 221 134 24.368871357164 32.147894439825 3946.2588056688 116578.14095392
119	456424 2802 11474 15380 88 221 134 26.65 29.95 3709.7 103014.575
118	459226 4129 11474 15380 88 221 134 1078.1337100182 4993.2202085844 400739.04768827 1375545987.9603
143	463355 4174 11474 15382 88 223 136 -1.8487013121315 21.786155686295 782.06273660546 7147.8376522373
142	467529 4409 11474 15382 88 223 136 -1.2142689421432 2.0557982339049 1.7914228634463 48.151363561378
139	471938 4196 11474 15382 88 223 136 29.013030649435 32.730579455551 4269.584405999 134196.53971396
133	476134 2844 11474 15382 88 223 136 26.65 26.65 3624.4 96590.26
132	478978 4193 11474 15382 88 223 136 737.97680383678 4975.6525781922 384137.58631182 1293365509.5833
138	483171 4001 11474 15382 88 223 136 -1.1164876157055 22.679890251257 857.45315449287 9618.5202972002
137	487172 4354 11474 15382 88 223 136 -3.0701829841648 2.3582095582969 4.0659269123559 141.06525455058
134	491526 4200 11474 15382 88 223 136 24.021484546785 31.507279914423 3981.4293058924 116967.46186544
131	495726 2844 11474 15382 88 223 136 26.65 29.95 3858.7 109851.64
130	498570 4190 11474 15382 88 223 136 1040.0836268934 4990.0056528715 403900.94162673 1380503754.4518
168	502760 4101 11474 15383 88 224 137 -1.3068511485781 19.908292245799 863.48191614176 8977.539620767
167	506861 4416 11474 15383 88 224 137 -2.0824169661495 2.0026017280179 2.0967172878316 85.202934704267
164	511277 4219 11474 15383 88 224 137 28.453810858791 32.871574367104 4299.9921720051 135138.52215875
158	515496 2865 11474 15383 88 224 137 26.65 26.65 3651.05 97300.4825
157	518361 4216 11474 15383 88 224 137 697.93663386239 4965.8507422929 383383.34700249 1285485944.6555
173	522577 4164 11474 15385 88 226 139 -1.8996566099924 25.163077516121 914.04914818213 9984.3627952452
172	526741 4480 11474 15385 88 226 139 -3.7612296116111 2.3599816267961 0.62921381060733 104.12486157274
169	531221 4286 11474 15385 88 226 139 27.977389626058 33.994178175216 4449.5816208962 142707.15876841
161	535507 2907 11474 15385 88 226 139 26.65 29.95 3707.65 98907.7075
160	538414 4280 11474 15385 88 226 139 573.88316854995 4989.5086914622 384433.58558125 1292605829.7695
108	542694 4167 11474 15386 88 227 140 -0.58344083507176 11.699039756129 651.34962924157 4330.1214165264
107	546861 4546 11474 15386 88 227 140 -1.1928781514871 1.1103715651552 0.6290801576688 41.880967548599
104	551407 4313 11474 15386 88 227 140 25.536226339541 27.552560105737 3773.7357535738 101743.02952378
96	555720 2788 11474 15386 88 227 140 26.65 29.95 4094 119976.95
95	558508 4174 11474 15386 88 227 140 1227.8932979707 4974.1741963338 434074.31578867 1511959895.8198
176	562682 4192 11474 15387 88 228 141 -0.38847430194009 23.734425868763 911.90133193681 9688.3651627288
175	566874 4550 11474 15387 88 228 141 -7.3340527857037 2.4174071708694 1.962080127159 149.7130984372
174	571424 4337 11474 15387 88 228 141 24.630029663671 32.334744229263 4363.6467526034 135256.72606289
166	575761 2949 11474 15387 88 228 141 26.65 29.95 3949.05 110974.6125
165	578710 4334 11474 15387 88 228 141 658.77063867785 4990.2094725404 395100.60495349 1331654631.1821
151	583044 4353 11474 15388 88 229 142 -1.3368010824107 18.20233363528 762.11746233275 6376.0294701952
150	587397 4591 11474 15388 88 229 142 -2.8723225996305 2.027278033449 0.51248405914521 62.735462075633
147	591988 4380 11474 15388 88 229 142 26.017311993862 30.646935428202 4223.1329253189 125734.14752033
141	596368 2970 11474 15388 88 229 142 26.65 29.95 4074.7 117288.235
140	599338 4369 11474 15388 88 229 142 778.03831024848 4971.1662641246 410624.11711477 1400658630.3044
129	603707 4172 11474 15388 88 229 142 -1.1849114466022 17.239970905825 805.91478206195 7343.8637890951
128	607879 4581 11474 15388 88 229 142 -3.0511795459497 1.7625386800501 -0.43334245849178 98.937753520416
127	612460 4376 11474 15388 88 229 142 25.107796343611 30.252966321777 4113.2648322408 119359.23259997
123	616836 2970 11474 15388 88 229 142 26.65 29.95 4104.4 118969.255
122	619806 4371 11474 15388 88 229 142 907.67550513868 4991.7148825474 420353.64717663 1447688973.3036
198	624177 4352 11474 15390 88 231 144 -1.6961063502405 23.687369382253 983.90123311346 10947.017215244
197	628529 4651 11474 15390 88 231 144 -1.7534577647893 2.4148836219683 7.7356535585703 85.350253057679
194	633180 4432 11474 15390 88 231 144 29.699047633925 36.003418156867 4696.6484825058 153359.42367992
189	637612 3012 11474 15390 88 231 144 26.65 26.65 3837.6 102272.04
188	640624 4434 11474 15390 88 231 144 314.43836984492 4976.0670347802 377772.90010625 1252023846.576
186	645058 4445 11474 15390 88 231 144 -1.9884110100308 22.237100328499 871.71578335775 7857.8294004585
185	649503 4658 11474 15390 88 231 144 -1.4757477764215 2.1841250790749 3.0758129308795 44.175520951179
184	654161 4435 11474 15390 88 231 144 30.716659313626 32.926130394983 4652.190172146 150322.02680217
181	658596 3012 11474 15390 88 231 144 26.65 29.95 3890.4 105260.52
180	661608 4433 11474 15390 88 231 144 357.51669707544 4977.1514136676 383620.0831562 1281357580.3885
163	666041 4463 11474 15391 88 232 145 -1.6127480092867 16.679601340313 859.44336563411 7530.8678171706
162	670504 4690 11474 15391 88 232 145 -6.6447045917754 1.8278899553115 0.39237960387254 88.354951045193
159	675194 4467 11474 15391 88 232 145 25.248942820581 32.239870700572 4569.2209565695 144095.01320341
156	679661 3033 11474 15391 88 232 145 26.65 29.95 4161.25 119792.4625
155	682694 4470 11474 15391 88 232 145 423.84145898085 4961.5261845481 391871.76785298 1312225034.6784
6	687164 3671 11474 15392 88 233 146 -1.5685562891917 25.706729208652 1072.9497979047 17245.896593734
5	690835 4156 11474 15392 88 233 146 -7.7916635998786 2.4977724772179 32.875407014303 458.52521516337
2	694991 3982 11474 15392 88 233 146 0 33.940605648494 3008.1036501862 92940.62808653
1	698973 2762 11474 15392 88 233 146 26.65 29.95 4323.2 128160.665
0	701735 4199 11474 15392 88 233 146 1997.3903496057 4972.5289701198 430836.35982197 1411656883.4704
179	705934 4517 11474 15395 88 236 149 -2.1406634729753 20.409074703674 1022.4509853058 10748.230767051
178	710451 4802 11474 15395 88 236 149 -1.7385184565643 2.3466725222534 16.404755610404 85.427289568793
177	715253 4590 11474 15395 88 236 149 18.332274469523 33.938454311797 4831.7547808042 157448.03213
171	719843 3117 11474 15395 88 236 149 26.65 29.95 4172.15 117216.7325
170	722960 4597 11474 15395 88 236 149 190.02216284007 4988.3600999986 379338.9833112 1259873937.7986
13	727557 4200 11474 15397 88 238 151 -1.7146883364953 25.889829701157 792.1771817452 8161.2677211303
12	731757 4534 11474 15397 88 238 151 -3.3855442657503 2.4870901062968 33.50757789016 165.23296456037
9	736291 4140 11474 15397 88 238 151 0 34.035168762822 3230.7724024113 103537.43805673
4	740431 2857 11474 15397 88 238 151 26.65 29.95 4439.95 130777.8775
3	743288 4348 11474 15397 88 238 151 1789.5770263091 4986.8418508302 426122.56467195 1371725020.9475
206	747636 4753 11474 15401 88 242 155 -1.4575146835094 20.276675654617 866.11326546619 7337.7787813606
205	752389 5019 11474 15401 88 242 155 -1.1555354489246 2.4090574021102 5.3915583682751 50.606496626379
202	757408 4765 11474 15401 88 242 155 27.443740474244 31.20408190688 4728.9650414425 144310.76041203
196	762173 3243 11474 15401 88 242 155 26.65 29.95 4434.35 127268.2475
195	765416 4780 11474 15401 88 242 155 275.50856520151 4974.0473652036 406494.79283061 1355907863.8137
21	770196 4512 11474 15406 88 247 160 -1.4601059422102 23.405637456156 860.02784812166 7972.6530284332
20	774708 4869 11474 15406 88 247 160 -5.8264230374486 2.4660027530626 29.946081400934 199.75170688888
17	779577 4624 11474 15406 88 247 160 0 31.144084224067 3756.6140641031 110026.65124458
11	784201 3188 11474 15406 88 247 160 26.65 29.95 4465.3 125029.18
10	787389 4764 11474 15406 88 247 160 1245.3032437572 4971.8819451469 430361.10660468 1395967806.0102
221	792153 4847 11474 15407 88 248 161 -0.97442710401032 21.351383631353 1037.2580325381 10611.561756894
220	797000 5183 11474 15407 88 248 161 -2.3129732005118 2.3070129967527 21.337937812705 112.08266200405
217	802183 4969 11474 15407 88 248 161 13.030255454016 33.074349448882 4871.0204502177 148708.2232971
211	807152 3369 11474 15407 88 248 161 26.65 26.65 4290.65 114345.8225
210	810521 4960 11474 15407 88 248 161 135.70272693565 4973.6488277044 403083.03937795 1340230845.2042
26	815481 4633 11474 15407 88 248 161 -1.1831901035213 19.762298020132 872.18956458712 7765.9830540093
25	820114 4903 11474 15407 88 248 161 -6.5365993823433 2.4146340502193 28.373392982138 190.40626423453
22	825017 4677 11474 15407 88 248 161 0 30.547684268662 4030.3915091347 117028.99219464
19	829694 3208 11474 15407 88 248 161 26.65 29.95 4693.25 137132.9825
18	832902 4803 11474 15407 88 248 161 964.48250327052 4966.1731372918 428656.88353625 1411485336.3846
243	837705 4936 11474 15409 88 250 163 -1.3303197545166 22.97105694802 1008.7325455602 10076.07475969
242	842641 5258 11474 15409 88 250 163 -4.6134468585876 2.4999242875492 12.785681237998 125.69907404015
239	847899 5025 11474 15409 88 250 163 11.418266836032 32.499580980078 4952.9879968907 152864.29433551
233	852924 3411 11474 15409 88 250 163 26.65 29.95 4449.55 121743.2275
232	856335 5024 11474 15409 88 250 163 67.755063161401 4989.1947640786 396307.4398002 1317235028.9131
16	861359 4335 11474 15409 88 250 163 -1.0502987196896 24.65265498992 1039.6657523023 14239.454606668
15	865694 4876 11474 15409 88 250 163 -7.8121105079529 2.4953627836658 28.855317441883 441.25960249026
14	870570 4674 11474 15409 88 250 163 0 33.060595703688 3406.001876458 96934.517979914
8	875244 3085 11474 15409 88 250 163 29.95 29.95 4881.85 146211.4075
7	878329 4702 11474 15409 88 250 163 1608.1817496396 4984.5186628088 458452.23454936 1495055626.411
229	883031 4793 11474 15410 88 251 164 -2.0278640334688 25.49859841984 1251.7016264299 16299.515179184
228	887824 5234 11474 15410 88 251 164 -7.0255673157163 2.462111331115 25.124273750366 292.46217323712
227	893058 5057 11474 15410 88 251 164 8.6620873828801 33.694300411796 4911.8526404423 149570.53468621
226	898115 3432 11474 15410 88 251 164 26.65 29.95 4598.3 129364.31
225	901547 5049 11474 15410 88 251 164 96.67996009572 4976.3470030815 408619.67192208 1373528261.1913
253	906596 4977 11611 15413 89 254 166 -1.5183506403482 24.077893393544 1051.5747559634 10556.715775195
252	911573 5335 11611 15413 89 254 166 -3.7176328932251 2.4489064299269 14.130118337093 133.05086618904
249	916908 5144 11474 15413 88 254 167 14.040545727839 31.719090385194 4989.3086628003 151135.6915235
241	922052 3495 11474 15413 88 254 167 26.65 29.95 4681.55 131681.7575
240	925547 5130 11474 15413 88 254 167 30.1 4988.1866188695 404338.03522481 1344547286.6225
213	930677 5080 11474 15414 88 255 168 -1.4621458843076 20.023936761828 1084.7179811066 11511.437695336
212	935757 5401 11474 15414 88 255 168 -2.2525679107624 2.4509971230873 31.747982318558 135.47935332949
209	941158 5183 11474 15414 88 255 168 0.015472099298114 34.076995510994 4906.6741935984 156251.45683922
204	946341 3516 11474 15414 88 255 168 26.65 29.95 4500.3 120624.84
203	949857 5182 11474 15414 88 255 168 102.75351796588 4977.5066505393 391010.06310634 1308142858.3047
201	955039 5147 11474 15414 88 255 168 -1.0461989173963 20.166583757255 905.30191632867 7339.7488988125
200	960186 5435 11474 15414 88 255 168 -1.0109504839056 2.3705269186758 15.105227232322 66.377299824112
199	965621 5173 11474 15414 88 255 168 15.542520365072 29.882741036271 4861.8724593255 141347.79174172
193	970794 3516 11474 15414 88 255 168 26.65 29.95 4916.1 144159.12
192	974310 5183 11474 15414 88 255 168 158.11053984114 4991.0296526952 427200.47978299 1424991199.885
256	979493 5031 11744 15415 90 256 167 -1.4098515906571 25.884662306006 1084.3301883467 10798.880712251
255	984524 5378 11744 15415 90 256 167 -5.8309614547593 2.4670983379474 12.483643393452 215.47076666807
254	989902 5181 11611 15415 89 256 168 1.6539084592112 34.771422620787 4968.2259269267 158928.37576342
246	995083 3537 11474 15415 88 256 169 26.65 29.95 4520.35 120961.5025
245	998620 5195 11474 15415 88 256 169 30.1 4966.9599374009 382675.24477951 1279345257.4001
224	1003815 4993 11474 15415 88 256 169 -1.2311024352069 23.216500712576 1052.0297786871 10799.057561527
223	1008808 5414 11474 15415 88 256 169 -3.2307884204504 2.4693148504593 19.999813058508 148.87857017707
222	1014222 5204 11474 15415 88 256 169 11.578003819542 30.87605589687 4893.8973143886 143040.23364424
219	1019426 3537 11474 15415 88 256 169 26.65 29.95 4932.85 144309.0025
218	1022963 5201 11474 15415 88 256 169 115.01849182595 4979.5239743846 423641.37661014 1412936830.2178
154	1028164 5139 11474 15417 88 258 171 -1.3742001653067 22.796821259735 1093.6362106544 11518.70370759
153	1033303 5508 11474 15417 88 258 171 -2.3736587571262 2.4287514391472 32.398095112476 144.98701583378
152	1038811 5277 11474 15417 88 258 171 0.0029531125784972 33.016682391661 4902.4065173546 151671.34017145
149	1044088 3579 11474 15417 88 258 171 26.65 29.95 4847.55 137884.6875
148	1047667 5277 11474 15417 88 258 171 118.94493976558 4988.3507488746 403782.0650516 1346025454.9218
261	1052944 5083 11877 15417 91 258 168 -1.4515593433688 22.838946163636 1065.2020225388 10828.078311817
260	1058027 5416 11877 15417 91 258 168 -6.7329963198243 2.3647930941661 15.22774546225 179.49435941753
257	1063443 5209 11744 15417 90 258 169 15.187574612043 31.194220256925 4988.7996775696 148938.41035306
251	1068652 3559 11611 15417 89 258 170 26.65 29.95 4989.2 146700.245
250	1072211 5217 11611 15417 89 258 170 30.1 4988.4843574953 413291.25652125 1379198856.6097
279	1077428 4957 12643 15419 97 260 164 -1.4589426497488 22.310592729465 1066.9561318049 10525.439591305
278	1082385 5298 12643 15419 97 260 164 -5.4740845841715 2.4094714244711 17.16651529239 143.83012392423
277	1087683 5097 12520 15419 96 260 165 4.7051376838679 33.564379608479 4976.2276080978 158349.69174065
274	1092780 3481 12397 15419 95 260 166 26.65 29.95 4486.6 121445.755
273	1096261 5100 12397 15419 95 260 166 30.1 4973.3387339632 380478.08007418 1260274299.5399
31	1101361 4946 11474 15419 88 260 173 -1.6028341452873 23.876335578114 934.26569679054 8499.9454438209
30	1106307 5326 11474 15419 88 260 173 -3.6855788246732 2.4940157748642 30.712454290452 141.14361573291
29	1111633 5049 11474 15419 88 260 173 0 31.919257777309 4385.6538697489 134218.21280662
24	1116682 3448 11474 15419 88 260 173 29.95 29.95 5181.35 155181.4325
23	1120130 5157 11474 15419 88 260 173 631.35941032358 4986.300825782 414826.21568009 1342754024.9608
238	1125287 5344 11474 15422 88 263 176 -1.511167323756 20.303360631068 1002.7503633203 8934.9450395588
237	1130631 5677 11474 15422 88 263 176 -6.9326259930546 2.4872938223416 18.821606938329 172.32232154184
234	1136308 5431 11474 15422 88 263 176 0.1861804113467 31.71568248524 4920.4692358134 149255.95140142
231	1141739 3684 11474 15422 88 263 176 26.65 29.95 5142.5 150588.02
230	1145423 5417 11474 15422 88 263 176 80.207695485461 4969.444368217 402271.12919852 1330290380.6041
271	1150840 5243 12270 15424 94 265 172 -1.7230824103876 22.765696222583 1008.2410806619 8953.9842900976
270	1156083 5553 12270 15424 94 265 172 -5.6593086087563 2.3530675677466 16.415763581872 143.47667762167
269	1161636 5338 12141 15424 93 265 173 3.7782684502052 32.012987300497 4980.277795212 151822.96988964
263	1166974 3646 12010 15424 92 265 174 26.65 29.95 5089.2 149167.575
262	1170620 5336 12010 15424 92 265 174 30.1 4979.4722731227 399262.86838822 1324409456.7278
216	1175956 5499 11474 15428 88 269 182 -2.5583246198807 20.875942830206 1094.833002015 10214.458064065
215	1181455 5862 11474 15428 88 269 182 -5.183219169252 2.3495157595607 32.698053555096 136.96781939693
214	1187317 5639 11474 15428 88 269 182 0.030841639426333 34.75668326447 4899.6862666893 160197.50760903
208	1192956 3810 11474 15428 88 269 182 26.65 29.95 4949.3 134863.895
207	1196766 5609 11474 15428 88 269 182 94.954876343686 4960.9909650641 369154.38895409 1207427672.3308
268	1202375 5256 12141 15429 93 270 178 -2.0350846877401 22.408184812663 1211.4693774969 13856.994940219
267	1207631 5699 12141 15429 93 270 178 -5.7538053893975 2.4340773977916 19.327472731989 244.95638385475
264	1213330 5530 12010 15429 92 270 179 0.15373716575689 37.450621603173 4979.6983584011 162621.13855138
259	1218860 3771 11877 15429 91 270 180 26.65 29.95 4853.1 131015.31
258	1222631 5534 11877 15429 91 270 180 30.1 4972.3632256292 366921.26607861 1200582826.0898
291	1228165 5191 13131 15430 101 271 171 -1.4341058839013 21.596929771214 985.6838439169 8253.4709002652
290	1233356 5540 13131 15430 101 271 171 -3.8911484119409 2.3452553880634 15.064262812586 114.29117025637
289	1238896 5314 13012 15430 100 271 172 5.2681282692059 31.312020773779 4971.9030352162 148703.20897923
283	1244210 3632 12889 15430 99 271 173 26.65 29.95 5085.65 149764.8125
282	1247842 5323 12889 15430 99 271 173 30.1 4971.3966015266 406867.16253499 1349502607.8037
69	1253165 5217 11474 15431 88 272 185 -1.7429743822397 22.130980055396 1120.2310004538 11887.817129915
68	1258382 5665 11474 15431 88 272 185 -1.9038008894053 2.2603448622976 32.703974342652 143.93234559804
67	1264047 5414 11474 15431 88 272 185 0 34.61688791125 4865.685481586 156116.86089255
61	1269461 3688 11474 15431 88 272 185 26.65 29.95 5240.45 148948.4825
60	1273149 5521 11474 15431 88 272 185 146.02409912935 4978.0410043253 389134.78320326 1289841495.7034
[...]
376	1614619 4575 15304 15454 145 295 151 -1.6005995470255 23.278527004035 1066.9297005583 11294.759739397
375	1619194 4880 15304 15454 145 295 151 -4.9035389315743 2.4683480747626 5.8360143075583 137.47790761876
374	1624074 4702 15303 15454 144 295 152 15.869829619176 35.43076712389 4961.052537652 164540.58934577
368	1628776 3213 15302 15454 143 295 153 26.65 29.95 4084.05 109037.6025
367	1631989 4702 15302 15454 143 295 153 30.1 4959.0285197444 372481.38541346 1250207088.7511
276	1636691 5951 12397 15454 95 295 201 -1.1964802345169 22.896978041596 1117.9753236567 11436.637382635
275	1642642 6465 12397 15454 95 295 201 -5.8053365004197 2.4692318335292 13.789805354742 303.00720415907
272	1649107 6250 12270 15454 94 295 202 0.0078569998547678 31.679481335289 4982.1970508362 147799.23144835
266	1655357 4256 12141 15454 93 295 203 26.65 29.95 6010.55 178169.1275
265	1659613 6241 12141 15454 93 295 203 30.1 4982.2584546469 413598.75791402 1368897824.1612
341	1665854 5171 15227 15456 127 297 171 -1.2911544696254 23.943627422143 1036.588874718 10452.944058839
340	1671025 5511 15227 15456 127 297 171 -7.8423431366841 2.4431929530692 6.6392598792188 270.83869392703
339	1676536 5319 15203 15456 126 297 172 2.0884696574928 31.909740289076 4981.2022506565 150979.77408807
333	1681855 3633 15179 15456 125 297 173 26.65 29.95 4871.15 137624.1125
332	1685488 5323 15179 15456 125 297 173 30.1 4979.7877380765 403952.39138637 1342228461.7204
314	1690811 5666 13987 15456 109 297 189 -1.512026191361 19.751153550011 1075.789772037 10279.978082592
313	1696477 6091 13987 15456 109 297 189 -7.215403686075 2.4776222225046 15.619867654831 270.52344240508
312	1702568 5877 13890 15456 108 297 190 0.05397400430208 31.415483428405 4985.7152558581 147650.69728133
306	1708445 4011 13791 15456 107 297 191 26.65 29.95 5657.75 167778.6575
305	1712456 5884 13791 15456 107 297 191 30.1 4985.6253097423 413784.88726598 1376188924.6787
388	1718340 4637 15307 15458 148 299 152 -1.9813129673877 25.13642215597 995.84155502477 10224.001410074
387	1722977 4912 15307 15458 148 299 152 -4.4292854605607 2.4267724677338 -0.46456072479486 115.79911442346
384	1727889 4729 15306 15458 147 299 153 19.06285887863 33.95547499536 4972.0278917972 162798.40919891
379	1732618 3234 15305 15458 146 299 154 26.65 29.95 4156.9 112362.745
378	1735852 4731 15305 15458 146 299 154 30.1 4969.3431786979 374049.12610714 1240654068.5352
344	1740583 5273 15249 15459 128 300 173 -1.3845328794607 19.919731798842 996.79868973164 8916.0961072847
343	1745856 5604 15249 15459 128 300 173 -6.0211158175016 2.3303839436267 8.2622637168052 185.47941651968
342	1751460 5374 15227 15459 127 300 174 6.8677515749915 30.906029657011 4981.6529175205 146798.21116903
336	1756834 3675 15203 15459 126 300 175 26.65 29.95 5171.95 153053.0575
335	1760509 5386 15203 15459 126 300 175 30.1 4981.5587100662 414068.36505198 1373444309.0753
66	1765895 6112 11474 15463 88 304 217 -1.1150167306519 15.767626927286 1016.255355469 8141.1027425018
65	1772007 6610 11474 15463 88 304 217 -2.9924171987433 2.457166199747 29.526806269669 145.54358462812
64	1778617 6257 11474 15463 88 304 217 0 30.669863926922 4886.0901834749 143543.08520884
56	1784874 4328 11474 15463 88 304 217 29.95 29.95 6499.15 194649.5425
55	1789202 6482 11474 15463 88 304 217 134.15610274816 4990.7060385447 425091.91257809 1391999827.5908
303	1795684 5981 13690 15464 106 305 200 -1.2478418264548 22.888286468454 1058.1848786072 9958.2056553788
302	1801665 6471 13690 15464 106 305 200 -6.4596582554724 2.4539465171983 11.276662930249 263.90653681784
299	1808136 6226 13585 15464 105 305 201 0.015673992941563 31.5284662858 4982.8003751317 148113.65357669
296	1814362 4242 13476 15464 104 305 202 26.65 29.95 5802.4 167186.005
295	1818604 6227 13476 15464 104 305 202 30.1 4982.0210172914 411452.53416582 1354969036.4248
248	1824831 6367 11474 15464 88 305 218 -1.3903619116006 18.932520091265 1074.0690784861 9473.968438496
247	1831198 7045 11474 15464 88 305 218 -6.3219436052243 2.3837766679935 9.6246133067455 303.70070646019
244	1838243 6768 11474 15464 88 305 218 0.00032210435511705 31.272677121707 4960.9383363883 145970.16613876
236	1845011 4566 11474 15464 88 305 218 26.65 29.95 6449.9 191063.825
235	1849577 6727 11474 15464 88 305 218 50.229903910883 4981.4137230815 419555.40658183 1378503752.6512
74	1856304 6121 11474 15465 88 306 219 -1.680155122723 19.8749165874 1059.1828731143 9297.4085989433
73	1862425 6735 11474 15465 88 306 219 -2.6587472184722 2.260433579213 29.458260609371 137.23627133732
72	1869160 6385 11474 15465 88 306 219 0 32.136327533333 4873.3015651403 149684.06460286
71	1875545 4368 11474 15465 88 306 219 29.95 29.95 6559.05 196443.5475
70	1879913 6531 11474 15465 88 306 219 126.58571549538 4970.3728528131 404045.37280445 1314335944.2771
391	1886444 4876 15308 15468 149 309 161 -1.6519678942319 20.008470857339 952.28010649251 8542.0868949722
390	1891320 5207 15308 15468 149 309 161 -4.5720727875617 2.13218842895 0.05409335973442 109.6687578769
389	1896527 4994 15307 15468 148 309 162 18.877804007066 31.903109838939 4966.1755891239 153175.37718151
383	1901521 3423 15306 15468 147 309 163 26.65 29.95 4680.55 134817.8275
382	1904944 5017 15306 15468 147 309 163 30.1 4964.693570582 397317.10329468 1318019124.0757
396	1909961 5072 15309 15474 150 315 166 -1.3872588957032 21.713823741807 922.92652248738 7880.2687801511
395	1915033 5386 15309 15474 150 315 166 -4.8679721686273 2.4219886196079 1.0064592823242 102.49658110102
392	1920419 5150 15308 15474 149 315 167 18.256649376132 30.99452762625 4976.3419826406 149184.45755138
386	1925569 3528 15307 15474 148 315 168 26.65 26.65 4477.2 119317.38
385	1929097 5170 15307 15474 148 315 168 30.1 4976.1578880217 410587.10555253 1364978804.6061
294	1934267 6407 13248 15474 102 315 214 -1.0224292188351 19.788298917172 1022.7538547026 8172.0306576774
293	1940674 6930 13248 15474 102 315 214 -6.8736418658353 2.2936148408917 13.210095053517 266.71847657769
292	1947604 6671 13131 15474 101 315 215 0.002338750114009 30.500145180612 4974.6950255402 143797.3354392
286	1954275 4536 13012 15474 100 315 216 29.95 29.95 6469.2 193752.54
285	1958811 6651 13012 15474 100 315 216 30.1 4974.3133791571 421820.17159668 1383076852.5583
401	1965462 4858 15311 15475 152 316 165 -0.35719140742048 20.238364931319 1016.8560736378 10137.314160194
400	1970320 5316 15311 15475 152 316 165 -5.4692386593129 2.1640526406097 0.15167444672975 148.87388192872
399	1975636 5119 15310 15475 151 316 166 20.152121742505 31.73984946097 4967.4969496683 149314.34668923
394	1980755 3507 15309 15475 150 316 167 26.65 26.65 4450.55 118607.1575
393	1984262 5137 15309 15475 150 316 167 30.1 4967.0886383999 408847.01676483 1356867991.3241
338	1989399 5536 15203 15475 126 316 191 -1.2567169793173 24.722309374594 1293.6537746385 16749.13110801
337	1994935 6098 15203 15475 126 316 191 -7.4133311293047 2.4784706500941 2.6186004909246 569.58249067064
334	2001033 5932 15179 15475 125 316 192 0.041401323590767 32.605708367085 4964.4157678358 144712.4530124
331	2006965 4053 15122 15475 124 316 193 29.95 29.95 5780.35 173121.4825
330	2011018 5939 15122 15475 124 316 193 30.1 4964.620526974 417053.95817373 1371121189.2496
406	2016957 4865 15312 15477 153 318 166 -1.1501527555391 24.231068395279 1080.0773182482 12491.536352923
405	2021822 5347 15312 15477 153 318 166 -4.4952055616908 2.4636077584 4.7612177691756 180.36843436989
402	2027169 5169 15311 15477 152 318 167 18.994159602011 32.290311283249 4990.1789231172 149945.07060656
398	2032338 3528 15310 15477 151 318 168 26.65 26.65 4477.2 119317.38
397	2035866 5169 15310 15477 151 318 168 30.1 4987.9886118339 412197.4140151 1373618513.9322
351	2041035 5241 15294 15477 135 318 184 -1.2899208593704 24.741170968718 1427.0055597914 21283.824312472
350	2046276 5844 15294 15477 135 318 184 -7.9802173051767 2.4498062254861 2.3598741572573 654.39402070792
349	2052120 5721 15293 15477 134 318 185 0.04072794881737 33.040964275752 4986.4370989341 146303.84639746
346	2057841 3906 15292 15477 133 318 186 29.95 29.95 5570.7 166842.465
345	2061747 5726 15292 15477 133 318 186 30.1 4984.8943783444 418651.05562221 1385168527.2505
411	2067473 4812 15314 15478 155 319 165 -1.5712733831565 24.244705604875 1121.9718165597 13859.363776571
410	2072285 5301 15314 15478 155 319 165 -4.1942577265168 2.4455411706003 4.6894912605895 208.69095905988
407	2077586 5125 15313 15478 154 319 166 20.535397331765 32.512272248001 4980.5840132848 150041.90656661
404	2082711 3507 15312 15478 153 319 167 26.65 26.65 4450.55 118607.1575
403	2086218 5131 15312 15478 153 319 167 30.1 4978.1717410368 410454.05346924 1365402228.3681
428	2091349 4682 15318 15479 159 320 162 -1.2884090808579 22.929840578403 1229.1227233727 16040.055565711
427	2096031 5179 15318 15479 159 320 162 -3.4278266956801 2.4204385065241 6.6699197317869 255.1541825758
424	2101210 5035 15317 15479 158 320 163 19.920418878046 33.964150386509 4969.5650923923 152433.74807699
416	2106245 3444 15316 15479 157 320 164 26.65 26.65 4370.6 116476.49
415	2109689 5046 15316 15479 157 320 164 30.1 4967.6489609373 402177.12667993 1334067030.4936
418	2114735 4649 15316 15479 157 320 164 -1.237201572231 23.907131806155 1280.017346872 18234.527899582
417	2119384 5224 15316 15479 157 320 164 -4.0171813606143 2.3879625656991 0.75286177255833 325.78237966349
414	2124608 5093 15315 15479 156 320 165 21.962975741308 32.619094040311 4974.7290244042 150450.41109961
409	2129701 3486 15314 15479 155 320 166 26.65 29.95 4549.3 124994.575
408	2133187 5106 15314 15479 155 320 166 30.1 4973.6532305792 408861.74489689 1358669393.7662
436	2138293 4710 15320 15481 161 322 162 -2.1985471798876 22.970694846904 1212.7984845357 16733.198200216
435	2143003 5189 15320 15481 161 322 162 -3.3739927597219 2.338581715012 13.950122293525 230.3738656068
432	2148192 5031 15319 15481 160 322 163 17.420445056069 34.297950747327 4992.0863775622 154295.25762636
426	2153223 3444 15318 15481 159 322 164 26.65 26.65 4370.6 116476.49
425	2156667 5049 15318 15481 159 322 164 30.1 4988.6344174586 404449.11684849 1349550116.6013
361	2161716 5491 15298 15481 139 322 184 -1.2068555770714 22.83180689703 1135.9423623813 11657.155745113
360	2167207 5924 15298 15481 139 322 184 -7.8446062380085 2.4872739729472 0.77295880303896 485.10684473634
357	2173131 5722 15297 15481 138 322 185 0.1652675332895 30.470940594002 4977.533315053 143635.25002639
356	2178853 3906 15296 15481 137 322 186 29.95 29.95 5570.7 166842.465
355	2182759 5722 15296 15481 137 322 186 30.1 4977.8693062196 424212.6513548 1401697062.7896
441	2188481 4757 15322 15482 163 323 161 -1.8530653553594 22.747938787958 1151.7950017115 14416.460030292
440	2193238 5174 15322 15482 163 323 161 -3.1000112484494 2.3470434561023 11.891140020549 192.72436876731
437	2198412 4999 15321 15482 162 323 162 19.576407278428 33.192114625807 4980.7754578859 154112.24850494
434	2203411 3423 15320 15482 161 323 163 26.65 26.65 4343.95 115766.2675
433	2206834 5021 15320 15482 161 323 163 30.1 4977.8305879584 402075.26932419 1339469572.0963
461	2211855 4591 15328 15483 169 324 156 -1.9713121207537 24.271410125616 1103.7644393924 13742.375086139
460	2216446 5030 15328 15483 169 324 156 -3.1125697891454 2.3843594506616 4.4386754275138 165.63983258815
457	2221476 4856 15327 15483 168 324 157 27.415098795694 33.957466124246 4967.1410069914 157573.12480993
453	2226332 3318 15326 15483 167 324 158 26.65 26.65 4210.7 112215.155
452	2229650 4858 15326 15483 167 324 158 30.1 4964.1648268096 390618.60618913 1294689924.5553
446	2234508 4580 15324 15483 165 324 160 -1.1237854414543 24.937614884985 1241.1070073757 17667.32589174
445	2239088 5125 15324 15483 165 324 160 -3.4392576946923 2.4872687499737 7.2065839712508 269.95685819123
444	2244213 4979 15323 15483 164 324 161 20.960709426823 33.780056768793 4974.9951723637 154457.5518296
439	2249192 3402 15322 15483 163 324 162 26.65 29.95 4363.5 117670.965
438	2252594 4985 15322 15483 163 324 162 30.1 4973.4369468623 400413.66781718 1331749065.7805
469	2257579 4534 15332 15485 173 326 154 -2.3855504263989 25.678479310276 1087.4887771835 13406.950407472
468	2262113 4963 15332 15485 173 326 154 -2.71020652894 2.4275490865693 -0.4448553264956 160.10439936019
467	2267076 4786 15331 15485 172 326 155 27.909766888903 34.054668923194 4989.0315330414 160942.34371906
464	2271862 3276 15330 15485 171 326 156 26.65 26.65 4157.4 110794.71
463	2275138 4802 15330 15485 171 326 156 30.1 4985.6924238065 392795.1612304 1310214607.4136
373	2279940 5512 15303 15485 144 326 183 -1.0075993359983 22.696446698306 1145.7669013389 12172.605474866
372	2285452 5893 15303 15485 144 326 183 -7.6502041826452 2.465361568029 0.71312603540719 491.07753454784
369	2291345 5686 15302 15485 143 326 184 0.17300833175736 30.153201204396 4985.9543452755 142399.77176933
366	2297031 3885 15301 15485 142 326 185 29.95 29.95 5540.75 165945.4625
365	2300916 5696 15301 15485 142 326 185 30.1 4986.314648706 431753.05724653 1434714158.0557
381	2306612 5310 15305 15486 146 327 182 -0.77850321080416 21.821615256388 1233.0824905837 14200.151285075
380	2311922 5826 15305 15486 146 327 182 -7.7086142268094 2.4214624171145 0.69607346199437 568.45340866206
377	2317748 5656 15304 15486 145 327 183 0.5523831237116 30.914376104387 4975.6949860476 142289.15333722
371	2323404 3864 15303 15486 144 327 184 29.95 29.95 5510.8 165048.46
370	2327268 5654 15303 15486 144 327 184 30.1 4976.2322071796 429776.66689391 1425721453.618
466	2332922 4865 15330 15488 171 329 159 -1.6893059126244 17.224438799463 902.67939003506 7715.472336725
465	2337787 5152 15330 15488 171 329 159 -2.5459030956955 1.5698466077658 -0.61565010633785 56.514666419136
462	2342939 4933 15329 15488 170 329 160 28.42125400711 31.915267093387 4989.0803580266 155613.88979835
459	2347872 3381 15328 15488 169 329 161 26.65 29.95 4541.45 128541.1025
458	2351253 4946 15328 15488 169 329 161 30.1 4988.4990162482 401138.34019892 1337316115.0141
423	2356199 5183 15317 15488 158 329 172 -1.0734252841999 22.014828527538 1007.0847070004 9463.8259295125
422	2361382 5561 15317 15488 158 329 172 -7.8711220544099 2.4062439479167 0.74452672178304 227.67173312678
419	2366943 5343 15316 15488 157 329 173 20.975390013441 29.952985246569 4975.2423981318 143584.86367133
413	2372286 3654 15315 15488 156 329 174 26.65 29.95 5151.9 152716.395
412	2375940 5357 15315 15488 156 329 174 30.1 4976.4693790175 428569.16677793 1421621272.0042
451	2381297 4963 15325 15489 166 330 165 -1.4428282432929 20.519698520481 1080.6008248702 11205.904943468
450	2386260 5307 15325 15489 166 330 165 -7.8436948727307 2.4197053501848 10.026394795541 236.10950429926
447	2391567 5127 15324 15489 165 330 166 19.263863009489 31.769239136205 4967.6970918737 149575.79276682
443	2396694 3507 15323 15489 164 330 167 26.65 29.95 4747.55 135417.3575
442	2400201 5133 15323 15489 164 330 167 30.1 4966.7139468709 409937.34676844 1355165394.5753
431	2405334 5047 15319 15489 160 330 171 -0.99743028086009 21.244960385362 1132.0757205284 11719.634907399
430	2410381 5487 15319 15489 160 330 171 -8 2.4787903018296 6.0346165864136 311.36506434389
429	2415868 5312 15318 15489 159 330 172 19.027026117957 31.056641639212 4965.090928 144232.24339941
421	2421180 3633 15317 15489 158 330 173 26.65 29.95 5135.15 152566.5125
420	2424813 5315 15317 15489 158 330 173 30.1 4965.8885337966 425554.11917608 1410945051.588
476	2430128 4792 15336 15491 177 332 156 -1.7471863043826 21.39514572688 896.05725285547 7683.1480525328
475	2434920 5065 15336 15491 177 332 156 -1.5247286462157 2.0722046421724 -0.26979162765201 46.846450411715
474	2439985 4852 15335 15491 176 332 157 29.606226695286 32.360748126513 4978.7791777217 157919.78004775
471	2444837 3318 15334 15491 175 332 158 26.65 29.95 4666.1 137990.795
470	2448155 4861 15334 15491 175 332 158 30.1 4977.5798957106 393282.43828247 1310258223.7307
456	2453016 4749 15327 15491 168 332 165 -2.03822257289 26.639305483222 1303.6238587021 18944.599907501
455	2457765 5271 15327 15491 168 332 165 -7.7934496952802 2.4975484036258 -2.5548453151533 466.21697588397
454	2463036 5122 15326 15491 167 332 166 21.428281853391 34.02070173383 4986.9466712832 150625.41124206
449	2468158 3507 15325 15491 166 332 167 29.95 29.95 5001.65 149799.4175
448	2471665 5139 15325 15491 166 332 167 30.1 4986.0962299757 424210.49337486 1421567294.0222
491	2476804 4790 15341 15495 182 336 155 -1.8232462155796 15.139811543545 891.30083365713 7510.1110822991
490	2481594 5042 15341 15495 182 336 155 -1.0091554161045 1.2106450776047 -0.01190365612274 39.534654177821
487	2486636 4818 15340 15495 181 336 156 30.681233479474 32.672083990688 4991.6249357209 159743.13637205
484	2491454 3297 15339 15495 180 336 157 26.65 29.95 4335.85 120096.8125
483	2494751 4833 15339 15495 180 336 157 30.1 4989.1146591141 391451.41572605 1305759362.9601
481	2499584 4866 15337 15496 178 337 160 -1.5724399551017 13.647466919606 902.83357907173 7103.3339845045
480	2504450 5188 15337 15496 178 337 160 -1.1747353861574 1.0777540924028 1.6603929496096 42.214438334598
477	2509638 4974 15336 15496 177 337 161 29.32471841385 31.578915226617 4973.7609782015 153682.11171284
473	2514612 3402 15335 15496 176 337 162 26.65 29.95 4838.7 144567.285
472	2518014 4989 15335 15496 176 337 162 30.1 4972.875866838 402539.25167182 1339030132.8844
501	2523003 4759 15345 15498 186 339 154 -1.7433549549586 14.446824255923 890.08728233951 7592.7869695311
500	2527762 4999 15345 15498 186 339 154 -1.1974621133413 1.0907382704318 0.12622742855456 41.104299610077
497	2532761 4791 15344 15498 185 339 155 31.37040202514 32.604393565934 4963.7545767785 158980.64320219
494	2537552 3276 15343 15498 184 339 156 26.65 29.95 4395 124242.87
493	2540828 4798 15343 15498 184 339 156 30.1 4961.8652161335 386591.48175255 1282194482.2305
509	2545626 4847 15349 15506 190 347 158 -1.4951901393235 23.103944049334 894.3381755357 7750.3505346669
508	2550473 5142 15349 15506 190 347 158 -1.3279293754881 2.2603617278775 0.043415797117632 49.866060293436
507	2555615 4913 15348 15506 189 347 159 29.484738480187 32.081343624615 4992.52796688 156798.70344943
504	2560528 3360 15347 15506 188 347 160 26.65 29.95 4399.3 121293.58
503	2563888 4926 15347 15506 188 347 160 30.1 4990.6124951647 399266.29810595 1332438154.1613
486	2568814 5153 15339 15506 180 347 168 -1.2110594895534 13.087158793947 857.81863254122 6544.4493451158
485	2573967 5462 15339 15506 180 347 168 -1.1418700925424 1.0974710565642 0.29425277607515 46.035294580112
482	2579429 5220 15338 15506 179 347 169 28.456718980243 30.222797298962 4994.5559467377 147629.38454474
479	2584649 3570 15337 15506 178 347 170 26.65 29.95 5075 151556.525
478	2588219 5225 15337 15506 178 347 170 30.1 4994.7589588343 424381.81971219 1417088576.1486
496	2593444 5148 15343 15509 184 350 167 -1.1521600863747 13.680562833582 839.74040436349 6328.6035049641
495	2598592 5447 15343 15509 184 350 167 -1.0431257254095 1.1820216703927 -0.57821587397484 43.297819190223
492	2604039 5191 15342 15509 183 350 168 28.937313040997 30.167511650407 4968.1296786448 146940.01022914
489	2609230 3549 15341 15509 182 350 169 26.65 29.95 5041.75 150472.7425
488	2612779 5201 15341 15509 182 350 169 30.1 4968.7725397219 420024.04271454 1396059962.4029
506	2617980 5090 15347 15514 188 355 168 -1.0672974645671 12.788142590552 868.12737228016 6242.2023120334
505	2623070 5472 15347 15514 188 355 168 -1.1570304041379 1.0800619740621 0.91684003709815 42.088853887105
502	2628542 5221 15346 15514 187 355 169 28.790403983224 30.035644526436 4965.4973903761 145918.15747113
499	2633763 3570 15345 15514 186 355 170 26.65 29.95 5075 151556.525
498	2637333 5231 15345 15514 186 355 170 30.1 4965.5632439891 422183.57558797 1401257957.7821

