version 2
run Scenario3-0-20180429-00:54:06-3960
attr configname Scenario3
attr datetime 20180429-00:54:06
attr experiment Scenario3
attr inifile omnetpp.ini
attr iterationvars ""
attr iterationvarsf ""
attr measurement ""
attr network HighwayScenario3
attr processid 3960
attr repetition 0
attr replication #0
attr resultdir results
attr runnumber 0
attr seedset 0
param *.attackerNode[*].applType "\"AttackerAppLayer_Sybil\""
param *.normal_carNode[*].applType "\"NormalAppLayer\""
param *.normal_carNode[*].appl.headerLength "80 bit"
param *.normal_carNode[*].appl.sendBeacons true
param *.normal_carNode[*].appl.dataOnSch false
param *.normal_carNode[*].appl.beaconInterval 0.1s
param *.node[*].applType "\"NormalAppLayer\""
param *.node[*].appl.headerLength "80 bit"
param *.node[*].appl.sendBeacons true
param *.node[*].appl.dataOnSch false
param *.node[*].appl.beaconInterval 0.1s
param **.debug false
param **.coreDebug false
param *.playgroundSizeX 5500m
param *.playgroundSizeY 500m
param *.playgroundSizeZ 50m
param *.annotations.draw false
param *.obstacles.debug false
param *.manager.updateInterval 0.1s
param *.manager.host "\"localhost\""
param *.manager.port 9999
param *.manager.autoShutdown true
param *.manager.launchConfig "xmldoc(\"highway.launchd.xml\")"
param *.connectionManager.sendDirect true
param *.connectionManager.maxInterfDist 2600m
param *.connectionManager.drawMaxIntfDist false
param *.**.nic.mac1609_4.useServiceChannel false
param *.**.nic.mac1609_4.txPower 20mW
param *.**.nic.mac1609_4.bitrate 6Mbps
param *.**.nic.phy80211p.sensitivity -89dBm
param *.**.nic.phy80211p.useThermalNoise true
param *.**.nic.phy80211p.thermalNoise -110dBm
param *.**.nic.phy80211p.decider "xmldoc(\"config.xml\")"
param *.**.nic.phy80211p.analogueModels "xmldoc(\"config.xml\")"
param *.**.nic.phy80211p.usePropagationDelay true
param *.**.nic.phy80211p.antenna "xmldoc(\"antenna.xml\", \"/root/Antenna[@id='monopole']\")"
param *.manager.moduleType "\"attacker=org.car2x.veins.nodes.Car normal_car=org.car2x.veins.nodes.Car *=org.car2x.veins.nodes.Car\""
param *.manager.moduleName "\"attacker=attackerNode normal_car=normal_carNode *=node\""
param *.node[*].veinsmobilityType.debug true
param *.node[*].veinsmobility.x 0
param *.node[*].veinsmobility.y 0
param *.node[*].veinsmobility.z 1.895
param *.attackerNode[*].veinsmobilityType.debug true
param *.attackerNode[*].veinsmobility.x 0
param *.attackerNode[*].veinsmobility.y 0
param *.attackerNode[*].veinsmobility.z 1.895
param *.normal_carNode[*].veinsmobilityType.debug true
param *.normal_carNode[*].veinsmobility.x 0
param *.normal_carNode[*].veinsmobility.y 0
param *.normal_carNode[*].veinsmobility.z 1.895

vector 0 HighwayScenario3.normal_carNode[0].veinsmobility posx ETV
vector 1 HighwayScenario3.normal_carNode[0].veinsmobility posy ETV
vector 2 HighwayScenario3.normal_carNode[0].veinsmobility speed ETV
vector 3 HighwayScenario3.normal_carNode[0].veinsmobility acceleration ETV
vector 4 HighwayScenario3.normal_carNode[0].veinsmobility co2emission ETV
vector 5 HighwayScenario3.normal_carNode[1].veinsmobility posx ETV
vector 6 HighwayScenario3.normal_carNode[1].veinsmobility posy ETV
vector 7 HighwayScenario3.normal_carNode[1].veinsmobility speed ETV
vector 8 HighwayScenario3.normal_carNode[1].veinsmobility acceleration ETV
vector 9 HighwayScenario3.normal_carNode[1].veinsmobility co2emission ETV
vector 10 HighwayScenario3.normal_carNode[2].veinsmobility posx ETV
vector 11 HighwayScenario3.normal_carNode[2].veinsmobility posy ETV
vector 12 HighwayScenario3.normal_carNode[2].veinsmobility speed ETV
vector 13 HighwayScenario3.normal_carNode[2].veinsmobility acceleration ETV
vector 14 HighwayScenario3.normal_carNode[2].veinsmobility co2emission ETV
vector 15 HighwayScenario3.normal_carNode[3].veinsmobility posx ETV
vector 16 HighwayScenario3.normal_carNode[3].veinsmobility posy ETV
vector 17 HighwayScenario3.normal_carNode[3].veinsmobility speed ETV
vector 18 HighwayScenario3.normal_carNode[3].veinsmobility acceleration ETV
vector 19 HighwayScenario3.normal_carNode[3].veinsmobility co2emission ETV
vector 20 HighwayScenario3.normal_carNode[4].veinsmobility posx ETV
vector 21 HighwayScenario3.normal_carNode[4].veinsmobility posy ETV
vector 22 HighwayScenario3.normal_carNode[4].veinsmobility speed ETV
vector 23 HighwayScenario3.normal_carNode[4].veinsmobility acceleration ETV
vector 24 HighwayScenario3.normal_carNode[4].veinsmobility co2emission ETV
vector 25 HighwayScenario3.normal_carNode[5].veinsmobility posx ETV
vector 26 HighwayScenario3.normal_carNode[5].veinsmobility posy ETV
vector 27 HighwayScenario3.normal_carNode[5].veinsmobility speed ETV
vector 28 HighwayScenario3.normal_carNode[5].veinsmobility acceleration ETV
vector 29 HighwayScenario3.normal_carNode[5].veinsmobility co2emission ETV
vector 30 HighwayScenario3.normal_carNode[6].veinsmobility posx ETV
vector 31 HighwayScenario3.normal_carNode[6].veinsmobility posy ETV
vector 32 HighwayScenario3.normal_carNode[6].veinsmobility speed ETV
vector 33 HighwayScenario3.normal_carNode[6].veinsmobility acceleration ETV
vector 34 HighwayScenario3.normal_carNode[6].veinsmobility co2emission ETV
vector 35 HighwayScenario3.normal_carNode[7].veinsmobility posx ETV
vector 36 HighwayScenario3.normal_carNode[7].veinsmobility posy ETV
vector 37 HighwayScenario3.normal_carNode[7].veinsmobility speed ETV
vector 38 HighwayScenario3.normal_carNode[7].veinsmobility acceleration ETV
vector 39 HighwayScenario3.normal_carNode[7].veinsmobility co2emission ETV
vector 40 HighwayScenario3.normal_carNode[8].veinsmobility posx ETV
vector 41 HighwayScenario3.normal_carNode[8].veinsmobility posy ETV
vector 42 HighwayScenario3.normal_carNode[8].veinsmobility speed ETV
vector 43 HighwayScenario3.normal_carNode[8].veinsmobility acceleration ETV
vector 44 HighwayScenario3.normal_carNode[8].veinsmobility co2emission ETV
vector 45 HighwayScenario3.normal_carNode[9].veinsmobility posx ETV
vector 46 HighwayScenario3.normal_carNode[9].veinsmobility posy ETV
vector 47 HighwayScenario3.normal_carNode[9].veinsmobility speed ETV
vector 48 HighwayScenario3.normal_carNode[9].veinsmobility acceleration ETV
vector 49 HighwayScenario3.normal_carNode[9].veinsmobility co2emission ETV
vector 50 HighwayScenario3.attackerNode[10].veinsmobility posx ETV
vector 51 HighwayScenario3.attackerNode[10].veinsmobility posy ETV
vector 52 HighwayScenario3.attackerNode[10].veinsmobility speed ETV
vector 53 HighwayScenario3.attackerNode[10].veinsmobility acceleration ETV
vector 54 HighwayScenario3.attackerNode[10].veinsmobility co2emission ETV
54	52774	22.3	2.5323467225391
54	53597	22.4	0.973
54	54420	22.5	0.973
54	55243	22.6	-1.7224048284698
54	56115	22.7	-3.3550938208442
54	57014	22.8	0.28331985310994
54	57913	22.9	0.973
54	58812	23	-1.1288040405128
54	59711	23.1	-0.25081656803895
54	60610	23.2	-3.3916862589951
54	61509	23.3	-0.51331367307722
54	62408	23.4	0.973
54	63307	23.5	5.29205220779
54	64206	23.6	0.973
54	65158	23.7	2.6732446556552
54	66057	23.8	0.973
54	66956	23.9	4.3603741272592
54	67855	24	-3.2188124937573
54	68754	24.1	-0.79082580054586
54	69645	24.2	47.331215292111
54	70536	24.3	0.973
54	71427	24.4	0.78745274372532
54	72318	24.5	-3.8133236388524
54	73209	24.6	4.6648772456433
54	74153	24.7	-0.56147683027635
54	75052	24.8	-0.26156509447179
54	75951	24.9	-1.0987954986758
54	76850	25	2.3096703873588
54	77749	25.1	-3.2087721053872
54	78640	25.2	0.8248887434001
54	79531	25.3	2.0575884469325
54	80422	25.4	0.76326779316463
54	81313	25.5	0.973
54	82204	25.6	4.2133340160725
54	83148	25.7	0.973
54	84039	25.8	0.973
54	84930	25.9	0.973
54	85821	26	0.973
54	86712	26.1	0.973
54	87603	26.2	0.973
54	88494	26.3	0.973
54	89385	26.4	0.973
54	90268	26.5	0.973
54	91151	26.6	0.973
54	92087	26.7	0.973
54	92970	26.8	0.973
54	93853	26.9	0.973
54	94736	27	0.973
54	95603	27.1	0.973
54	96470	27.2	0.973
54	97337	27.3	0.973
54	98204	27.4	0.973
54	99071	27.5	0.973
54	99938	27.6	0.973
54	100858	27.7	0.973
54	101725	27.8	0.973
54	102592	27.9	0.973
54	103459	28	0.973
54	104326	28.1	0.973
54	105193	28.2	0.973
54	106060	28.3	0.973
54	106927	28.4	0.973
54	107794	28.5	0.973
54	108661	28.6	0.973
54	109581	28.7	0.973
54	110448	28.8	0.973
54	111315	28.9	0.973
54	112174	29	0.973
54	113033	29.1	0.973
54	113892	29.2	0.973
54	114751	29.3	0.973
54	115610	29.4	0.973
54	116461	29.5	0.973
54	117304	29.6	0.973
54	118200	29.7	0.973
54	119035	29.8	0.973
54	119870	29.9	0.973
54	120705	30	0.973
54	121540	30.1	0.973
54	122375	30.2	0.973
54	123210	30.3	20.279077619904
54	124045	30.4	20.384213002198
54	124880	30.5	19.930864230926
54	125715	30.6	21.654485975915
54	126603	30.7	21.589468015641
54	127438	30.8	21.232998334493
54	128273	30.9	23.234723587372
54	129108	31	24.100605124663
54	129943	31.1	24.072620814713
54	130778	31.2	23.615991013324
54	131613	31.3	23.83823266801
54	132448	31.4	25.20581297711
54	133275	31.5	0.973
54	134102	31.6	0.973
54	134982	31.7	0.973
54	135809	31.8	0.973
54	136636	31.9	0.973
54	137463	32	0.973
54	138290	32.1	0.973
54	139117	32.2	0.973
54	139936	32.3	0.973
54	140755	32.4	0.973
54	141574	32.5	0.973
54	142393	32.6	0.973
54	143265	32.7	0.973
54	144084	32.8	0.973
54	144903	32.9	0.973
54	145722	33	0.973
54	146541	33.1	0.973
54	147360	33.2	0.973
54	148171	33.3	0.973
54	148982	33.4	0.973
54	149793	33.5	0.973
54	150552	33.6	0.973
54	151364	33.7	0.973
54	152123	33.8	0.973
54	152882	33.9	0.973
54	153641	34	0.973
54	154400	34.1	0.973
54	155159	34.2	0.973
54	155918	34.3	10.233426240131
54	156677	34.4	10.057814519089
54	157436	34.5	10.739434973959
54	158143	34.6	11.452617251517
54	158903	34.7	11.537049804275
54	159610	34.8	11.792464056417
54	160317	34.9	12.660030621426
54	161024	35	13.704390577508
54	161731	35.1	13.308405879259
54	162438	35.2	14.762148770546
54	163145	35.3	14.539018757803
54	163852	35.4	15.232434229566
54	164559	35.5	14.941340663997
54	165266	35.6	15.739708321266
54	166026	35.7	17.274790559379
54	166733	35.8	17.710037558271
54	167440	35.9	18.188738534318
54	168147	36	17.252324156967
54	168854	36.1	18.578904479459
54	169561	36.2	18.9677403477
54	170268	36.3	19.616861883551
54	170975	36.4	20.74781304625
54	171682	36.5	19.721371989731
54	172337	36.6	20.679689262569
54	173045	36.7	20.473514226096
54	173700	36.8	22.738229711454
54	174355	36.9	23.414327152095
54	175010	37	23.63409811714
54	175665	37.1	22.967381104202
54	176320	37.2	23.732824058554
54	176975	37.3	23.517614534671
54	177630	37.4	25.397660767954
54	178277	37.5	25.264694100862
54	178924	37.6	26.024799102028
54	179624	37.7	27.063751133026
54	180263	37.8	27.612508671623
54	180902	37.9	28.905120925539
54	181541	38	29.117168483371
54	182180	38.1	29.312388047784
54	182819	38.2	29.341049638531
54	183458	38.3	30.22251575551
54	184097	38.4	29.031955201147
54	184736	38.5	30.906500279979
54	185375	38.6	31.474075877357
54	186067	38.7	31.168996689551
54	186706	38.8	13.154360954178
54	187345	38.9	0.973
54	187984	39	0.973
54	188623	39.1	0.973
54	189262	39.2	0.973
54	189901	39.3	0.973
54	190540	39.4	0.973
54	191179	39.5	0.973
54	191818	39.6	0.973
54	192510	39.7	0.973
54	193149	39.8	28.375661850159
54	193788	39.9	0.973
54	194427	40	0.973
54	195066	40.1	0.973
54	195705	40.2	0.973
54	196344	40.3	0.973
54	196983	40.4	0.973
54	197622	40.5	0.973
54	198261	40.6	0.973
54	198953	40.7	0.973
54	199592	40.8	0.973
54	200231	40.9	0.973
54	200870	41	0.973
54	201509	41.1	0.973
54	202148	41.2	0.973
54	202787	41.3	0.973
54	203426	41.4	0.973
54	204065	41.5	0.973
54	204704	41.6	0.973
54	205396	41.7	0.973
54	206035	41.8	2.9159684773929
54	206674	41.9	3.5566733701409
54	207313	42	2.0366002776746
54	207952	42.1	1.4453326350362
54	208591	42.2	1.2441727607627
54	209230	42.3	1.8997939063016
54	209869	42.4	4.1860293102258
54	210508	42.5	3.8272596222341
54	211147	42.6	5.7274475703952
54	211839	42.7	6.3287324006999
54	212478	42.8	0.973
54	213117	42.9	0.973
54	213756	43	0.973
54	214395	43.1	0.973
54	215034	43.2	0.973
54	215673	43.3	0.973
54	216312	43.4	0.973
54	216951	43.5	0.973
54	217590	43.6	0.973
54	218282	43.7	0.973
54	218921	43.8	0.973
54	219560	43.9	0.973
54	220199	44	0.973
54	220838	44.1	0.973
54	221477	44.2	0.973
54	222116	44.3	18.552961746872
54	222755	44.4	20.008067670908
54	223394	44.5	20.192452441873
54	224033	44.6	20.263607515906
54	224725	44.7	21.138911214751
54	225364	44.8	20.840626908347
54	226003	44.9	21.387877485876
54	226642	45	23.572091411135
54	227281	45.1	23.300024024581
54	227920	45.2	24.01641869098
54	228559	45.3	23.58700429612
54	229198	45.4	25.961272324894
54	229837	45.5	25.143728512732
54	230476	45.6	25.149762756039
54	231168	45.7	26.385084121686
54	231807	45.8	28.035035516193
54	232446	45.9	28.042100865533
54	233085	46	28.988052607209
54	233724	46.1	27.426639278914
54	234363	46.2	28.712989526675
54	235002	46.3	8.2273710804838
54	235641	46.4	0.973
54	236280	46.5	0.973
54	236919	46.6	0.973
54	237611	46.7	0.973
54	238250	46.8	0.973
54	238889	46.9	0.973
54	239476	47	0.973
54	240063	47.1	0.973
54	240650	47.2	0.973
54	241237	47.3	0.973
54	241824	47.4	0.973
54	242411	47.5	0.973
54	242998	47.6	0.973
54	243638	47.7	0.973
54	244225	47.8	0.973
54	244812	47.9	0.973
54	245399	48	0.973
54	245986	48.1	0.973
54	246573	48.2	0.973
54	247160	48.3	0.973
54	247747	48.4	0.973
54	248334	48.5	0.973
54	248921	48.6	0.973
54	249561	48.7	0.973
54	250148	48.8	0.973
54	250735	48.9	0.973
54	251322	49	0.973
54	251909	49.1	0.973
54	252496	49.2	0.973
54	253083	49.3	0.973
54	253670	49.4	0.973
54	254257	49.5	0.973
54	254844	49.6	0.973
54	255484	49.7	0.973
54	256071	49.8	0.973
54	256658	49.9	0.973
54	257245	50	0.973
54	257832	50.1	0.973
54	258419	50.2	0.973
54	259006	50.3	0.973
54	259593	50.4	0.973
54	260180	50.5	0.973
54	260767	50.6	0.973
54	261407	50.7	0.973
54	261994	50.8	0.973
54	262581	50.9	1.1869147074751
54	263168	51	1.4871340251836
54	263755	51.1	1.3477797890815
54	264342	51.2	1.3596619989422
54	264929	51.3	1.6544440243269
54	265516	51.4	1.9766974090898
54	266103	51.5	5.886354862136
54	266690	51.6	6.4410062177756
54	267330	51.7	6.419742178679
54	267917	51.8	6.8429230482903
54	268504	51.9	7.6479984519266
54	269039	52	8.1850632691603
54	269574	52.1	8.3840161216052
54	270109	52.2	8.6118935364785
54	270644	52.3	9.6702657654612
54	271179	52.4	9.973651468793
54	271714	52.5	10.284953377978
54	272249	52.6	10.880606110221
54	272837	52.7	11.633013340413
54	273372	52.8	12.287832028489
54	273907	52.9	12.565648876379
54	274442	53	12.711437854451
54	274977	53.1	12.992437058732
54	275512	53.2	13.551214865489
54	276047	53.3	13.865811761713
54	276582	53.4	15.187344135505
54	277117	53.5	15.693505459078
54	277652	53.6	15.889666721132
54	278240	53.7	16.661602718851
54	278775	53.8	16.444402195144
54	279310	53.9	16.82498737687
54	279845	54	16.964807778684
54	280380	54.1	17.604679062432
54	280915	54.2	18.408591227793
54	281450	54.3	19.906942170904
54	281985	54.4	18.720316377864
54	282468	54.5	19.281306136885
54	282951	54.6	19.623304612451
54	283487	54.7	20.403419345959
54	283970	54.8	20.968454867448
54	284453	54.9	21.97480202202
54	284936	55	23.402019733063
54	285419	55.1	23.497413095072
54	285902	55.2	23.995312671783
54	286385	55.3	24.519249443291
54	286868	55.4	25.626253155128
54	287351	55.5	24.251431749891
54	287834	55.6	25.137873410074
54	288370	55.7	25.485023872582
54	288853	55.8	27.065805080582
54	289336	55.9	26.460619243584
54	289819	56	26.658402261729
54	290302	56.1	27.439204857858
54	290785	56.2	28.339719404672
54	291268	56.3	29.297738111105
54	291751	56.4	29.051004168717
54	292234	56.5	29.170316405725
54	292717	56.6	30.121837131905
54	293253	56.7	30.606242178527
54	293736	56.8	32.546231217629
54	294219	56.9	31.878912020522
54	294702	57	33.584945895491
54	295185	57.1	34.330651857573
54	295668	57.2	35.043065331539
54	296151	57.3	33.933632377367
54	296634	57.4	35.1347581574
54	297117	57.5	36.106264799409
54	297600	57.6	35.050096214141
54	298136	57.7	35.345499138701
54	298619	57.8	38.062904625185
54	299102	57.9	38.564895969402
54	299585	58	37.257180667111
54	300068	58.1	40.176040954373
54	300551	58.2	38.67725443176
54	301034	58.3	39.658946908558
54	301517	58.4	41.723847942685
54	302000	58.5	40.761461258663
54	302483	58.6	40.744660383516
54	303019	58.7	44.054386762869
54	303502	58.8	41.883242236811
54	303985	58.9	45.256979054402
54	304468	59	43.633249555625
54	304951	59.1	45.444939342827
54	305434	59.2	45.013010575322
54	305917	59.3	46.117507463242
54	306400	59.4	46.347832958904
54	306883	59.5	45.72450242488
54	307366	59.6	49.030516184465
54	307902	59.7	47.438575150594
54	308385	59.8	47.495847033697
54	308868	59.9	51.836144059466
54	309351	60	48.962708848302
54	309834	60.1	52.67904827011
54	310317	60.2	52.42843078864
54	310800	60.3	53.57167153602
54	311283	60.4	55.17082710318
54	311766	60.5	54.133320839445
54	312249	60.6	54.326488633485
54	312785	60.7	53.963742090703
54	313268	60.8	57.753002690794
54	313751	60.9	54.962360274085
54	314234	61	56.791079321952
54	314717	61.1	56.914660568475
54	315200	61.2	59.906843798355
54	315683	61.3	61.513143973076
54	316166	61.4	59.935316262021
54	316649	61.5	59.237519073678
54	317132	61.6	62.96313172254
54	317668	61.7	63.620993108556
54	318151	61.8	64.008242907675
54	318634	61.9	64.720998769817
54	319117	62	65.863690882822
54	319600	62.1	68.28280937982
54	320083	62.2	64.35629936505
54	320566	62.3	66.264367939849
54	321049	62.4	70.056814620507
54	321532	62.5	68.424647981184
54	322015	62.6	69.832061501004
54	322551	62.7	70.363344978429
54	323034	62.8	72.137963540869
54	323517	62.9	69.707645101401
54	324000	63	73.14737677413
54	324483	63.1	71.361110664963
54	324966	63.2	74.298768944439
54	325449	63.3	76.267313091062
54	325932	63.4	73.830757176226
54	326415	63.5	78.929881067367
54	326898	63.6	74.937687050393
54	327434	63.7	76.509080013862
54	327917	63.8	77.709469331643
54	328400	63.9	80.419640593486
54	328883	64	77.824367181517
54	329366	64.1	83.066648531102
54	329849	64.2	85.496076264322
54	330332	64.3	82.587270972304
54	330815	64.4	83.79892069863
54	331298	64.5	40.484974439421
54	331781	64.6	22.791146926392
54	332317	64.7	26.408247374501
54	332800	64.8	23.958411851393
54	333283	64.9	17.714042750248
54	333766	65	28.666261150746
54	334249	65.1	18.929621441564
54	334732	65.2	26.165438522082
54	335215	65.3	20.260417164742
54	335698	65.4	28.455703581956
54	336181	65.5	17.645083760384
54	336664	65.6	27.26642255915
54	337192	65.7	19.697663898579
54	337663	65.8	23.245131745796
54	338134	65.9	28.227604414996
54	338605	66	21.861716996755
54	339076	66.1	24.47378848724
54	339547	66.2	18.273202168873
54	340018	66.3	28.681835646959
54	340489	66.4	22.576602641233
54	340956	66.5	21.605267424822
54	341419	66.6	23.406379643152
54	341923	66.7	20.918149448312
54	342386	66.8	25.883419049933
54	342849	66.9	23.602910797739
54	343312	67	23.051098183544
54	343775	67.1	19.876987958454
54	344238	67.2	24.181576534416
54	344701	67.3	26.129238764773
54	345156	67.4	20.506443513908
54	345611	67.5	25.276297289648
54	346066	67.6	24.853792912232
54	346554	67.7	24.596739614718
54	347009	67.8	18.005796787288
54	347464	67.9	26.077547541986
54	347919	68	22.485532014809
54	348374	68.1	24.63042100514
54	348829	68.2	20.784206805347
54	349284	68.3	25.646051237896
54	349739	68.4	23.765286325916
54	350190	68.5	18.997253481936
54	350641	68.6	25.085511160015
54	351121	68.7	25.923465939741
54	351572	68.8	22.666105429566
54	352023	68.9	25.136515020245
54	352474	69	22.506766180576
54	352925	69.1	22.767245660586
54	353376	69.2	23.153292516609
54	353827	69.3	22.67948575685
54	354278	69.4	23.706358383576
54	354729	69.5	24.974656280258
54	355180	69.6	23.347486092028
54	355660	69.7	22.881621491119
54	356111	69.8	22.780599081531
54	356562	69.9	22.039135061671
54	357013	70	26.177250020207
54	357464	70.1	21.827115155803
54	357915	70.2	24.005598511787
54	358366	70.3	22.666730762396
54	358817	70.4	23.075641120679
54	359268	70.5	24.193621601793
54	359719	70.6	24.159702139936
54	360199	70.7	20.079889290939
54	360650	70.8	21.959718872455
54	361101	70.9	26.053947083701
54	361552	71	19.568125735497
54	362003	71.1	23.67310376365
54	362454	71.2	26.83677595363
54	362905	71.3	24.325017089711
54	363356	71.4	23.087480220846
54	363807	71.5	22.723551885912
54	364258	71.6	19.202813076391
54	364738	71.7	28.581857911967
54	365189	71.8	20.131029503558
54	365640	71.9	24.772689239596
54	366091	72	22.308731059011
54	366542	72.1	22.152195492825
54	366993	72.2	24.896950974053
54	367444	72.3	25.664119261717
54	367895	72.4	18.732665576374
54	368346	72.5	26.214423137936
54	368797	72.6	21.757728826026
54	369277	72.7	22.628019921919
54	369728	72.8	21.987132456643
54	370179	72.9	24.577877927977
54	370630	73	22.472639668083
54	371081	73.1	25.028637864496
54	371532	73.2	21.095533958049
54	371983	73.3	27.563247668566
54	372434	73.4	18.69109223117
54	372885	73.5	26.400886056022
54	373336	73.6	21.680216067859
54	373816	73.7	24.816580606392
54	374267	73.8	25.012812266867
54	374718	73.9	23.693122828487
54	375169	74	18.748559446521
54	375620	74.1	24.247951306233
54	376071	74.2	22.805609173922
54	376522	74.3	22.158466644965
54	376973	74.4	24.056954545285
54	377424	74.5	24.125069497807
54	377875	74.6	26.255329327899
54	378355	74.7	22.041677551153
54	378806	74.8	23.697904473015
54	379257	74.9	22.811959689749
54	379708	75	23.036533243152
54	380159	75.1	21.619354924171
54	380610	75.2	24.459737310166
54	381061	75.3	25.648602906335
54	381512	75.4	24.078080451273
54	381963	75.5	21.523240955408
54	382414	75.6	24.559052361383
54	382894	75.7	23.178788691667
54	383345	75.8	23.012385825625
54	383796	75.9	18.845041364995
54	384247	76	25.582764042717
54	384698	76.1	21.944722596248
54	385149	76.2	23.032362276254
54	385600	76.3	22.530496060316
54	386051	76.4	25.182523806815
54	386502	76.5	21.677089323225
54	386953	76.6	22.862986209436
54	387433	76.7	28.632899560303
54	387884	76.8	19.932894007815
54	388335	76.9	25.925544107311
54	388786	77	21.604126577715
54	389237	77.1	24.842117701962
54	389688	77.2	25.087021157278
54	390139	77.3	18.996503640205
54	390590	77.4	27.056373714603
54	391041	77.5	23.772509013086
54	391528	77.6	23.037522920825
54	392048	77.7	19.76177709379
54	392535	77.8	25.318141039916
54	393022	77.9	22.965012397057
54	393509	78	25.648987984354
54	393996	78.1	20.966153501478
54	394483	78.2	22.005673091817
54	394970	78.3	25.786126578274
54	395457	78.4	23.566479479639
54	395944	78.5	19.972931050758
54	396431	78.6	23.662331888474
54	396951	78.7	24.70149094723
54	397438	78.8	23.718403463191
54	397925	78.9	21.963224018402
54	398412	79	22.911958198299
54	398899	79.1	23.518863730162
54	399386	79.2	26.719561833137
54	399873	79.3	19.812586909047
54	400360	79.4	25.036644237771
54	400847	79.5	24.862817344301
54	401334	79.6	21.540765626763
54	401854	79.7	24.256284051154
54	402341	79.8	21.117887783991
54	402828	79.9	26.704855142517
54	403315	80	19.314241153224
54	403802	80.1	23.418442309839
54	404289	80.2	22.38281330649
54	404776	80.3	24.065181578236
54	405263	80.4	26.974556688337
54	405750	80.5	19.918850609705
54	406237	80.6	24.949899094291
54	406757	80.7	25.011446220271
54	407244	80.8	19.571058440968
54	407731	80.9	22.264720719636
54	408218	81	26.63412023808
54	408705	81.1	22.94118396423
54	409192	81.2	24.23496624817
54	409679	81.3	20.480215301999
54	410166	81.4	24.710014788877
54	410653	81.5	23.030528650571
54	411140	81.6	24.963323344708
54	411660	81.7	19.598228203061
54	412147	81.8	22.937361237396
54	412634	81.9	26.335694787789
54	413121	82	21.366244160698
54	413608	82.1	22.929172808508
54	414095	82.2	25.907433654382
54	414582	82.3	19.530610096076
54	415069	82.4	25.101288893624
54	415556	82.5	23.265175706844
54	416043	82.6	24.076093542712
54	416563	82.7	21.088173302808
54	417050	82.8	28.303107609368
54	417537	82.9	21.641977571642
54	418024	83	21.468078397795
54	418511	83.1	22.660633692516
54	418998	83.2	21.913951125789
54	419485	83.3	25.915572004723
54	419972	83.4	20.586497388703
54	420459	83.5	24.266358195507
54	420946	83.6	24.861203831015
54	421466	83.7	20.662067140665
54	421953	83.8	26.917035174266
54	422440	83.9	22.838135823951
54	422927	84	26.054263248508
54	423414	84.1	21.199821239589
54	423901	84.2	20.322749021984
54	424380	84.3	27.345431922652
54	424859	84.4	18.373095225414
54	425338	84.5	24.341019748937
54	425817	84.6	27.051527766856
54	426329	84.7	19.780374605707
54	426808	84.8	27.284807397524
54	427287	84.9	23.350825465968
54	427766	85	18.122091187532
54	428245	85.1	28.536917462236
54	428724	85.2	18.874810154722
54	429203	85.3	23.601767114671
54	429682	85.4	27.0975728536
54	430161	85.5	22.814477017945
54	430640	85.6	24.578894705302
54	431152	85.7	22.112755824433
54	431631	85.8	25.00398727555
54	432110	85.9	19.19270198421
54	432589	86	22.989279232453
54	433068	86.1	21.880192632576
54	433547	86.2	28.870169587923
54	434026	86.3	21.068594213978
54	434505	86.4	24.758336671966
54	434984	86.5	23.227300089954
54	435463	86.6	19.207084544167
54	435975	86.7	24.182439445403
54	436454	86.8	25.825780879
54	436933	86.9	23.382258456927
54	437412	87	19.597674542185
54	437891	87.1	22.74703558102
54	438370	87.2	24.731613579421
54	438849	87.3	25.532069105204
54	439328	87.4	20.727269432649
54	439807	87.5	26.344197605404
54	440286	87.6	23.734430971507
54	440798	87.7	24.662200189774
54	441313	87.8	21.848179601899
54	441792	87.9	24.702391593997
54	442271	88	22.360497019945
54	442750	88.1	19.856482261867
54	443229	88.2	26.075571748114
54	443708	88.3	22.786738975843
54	444187	88.4	20.295708375331
54	444666	88.5	23.426283036931
54	445145	88.6	25.67292214278
54	445661	88.7	25.542155619774
54	446140	88.8	23.644383471109
54	446619	88.9	19.963176314443
54	447098	89	24.705045391399
54	447577	89.1	24.253216610513
54	448056	89.2	20.432334339459
54	448535	89.3	25.864740211678
54	449014	89.4	24.16036084706
54	449493	89.5	23.883049765355
54	449972	89.6	20.581126012636
54	450488	89.7	21.950526372246
54	450967	89.8	25.602462469129
54	451446	89.9	19.030272534366
54	451925	90	25.426759404718
54	452404	90.1	24.559191745997
54	452883	90.2	21.278594903472
54	453362	90.3	24.189056137144
54	453841	90.4	27.14519376773
54	454320	90.5	19.402911565368
54	454799	90.6	23.248491943447
54	455315	90.7	23.502544418402
54	455794	90.8	21.231775130859
54	456273	90.9	28.706054448948
54	456752	91	21.448241923144
54	457231	91.1	19.445890798539
54	457710	91.2	28.004562812606
54	458189	91.3	22.382394265269
54	458668	91.4	22.974137625328
54	459195	91.5	20.772382726751
54	459722	91.6	23.818225768361
54	460290	91.7	24.502723048515
54	460817	91.8	21.025442400553
54	461344	91.9	27.721887367372
54	461871	92	19.681602029599
54	462398	92.1	22.076040757413
54	462925	92.2	23.458674952234
54	463452	92.3	24.051123115312
54	463979	92.4	22.974877712782
54	464506	92.5	28.473256501279
54	465033	92.6	20.42881539136
54	465601	92.7	25.093329955649
54	466128	92.8	20.235277480995
54	466655	92.9	24.72721532305
54	467182	93	23.964637791374
54	467709	93.1	20.813684434437
54	468236	93.2	22.969840955998
54	468763	93.3	23.854906660263
54	469290	93.4	22.431998898478
54	469817	93.5	24.134942907412
54	470344	93.6	25.569706210181
54	470912	93.7	21.522903153331
54	471439	93.8	24.901608192957
54	471966	93.9	23.340704229961
54	472493	94	25.271419466304
54	473020	94.1	21.427284137549
54	473547	94.2	25.775842789789
54	474074	94.3	23.023690629906
54	474601	94.4	23.542289752089
54	475128	94.5	22.056094047684
54	475655	94.6	19.928073605195
54	476283	94.7	24.377138071201
54	476866	94.8	21.776837830326
54	477449	94.9	24.096154540235
54	478032	95	23.151794735763
54	478615	95.1	27.5562789682
54	479198	95.2	18.003869184808
54	479781	95.3	23.949168035839
54	480364	95.4	22.509428082168
54	480931	95.5	26.416592675759
54	481498	95.6	22.924772323723
54	482106	95.7	26.45861014415
54	482673	95.8	21.681130886602
54	483240	95.9	23.243991584357
54	483807	96	18.974467391905
54	484374	96.1	28.952067681
54	484941	96.2	20.322705384215
54	485508	96.3	26.628515490199
54	486075	96.4	21.642918998658
54	486642	96.5	18.99077566529
54	487209	96.6	23.727782279324
54	487817	96.7	26.255368276919
54	488384	96.8	22.181785675856
54	488951	96.9	24.761166162837
54	489518	97	22.077494107103
54	490085	97.1	24.01617047562
54	490652	97.2	24.130554619167
54	491219	97.3	24.11600735407
54	491786	97.4	22.773127151321
54	492353	97.5	20.023831131971
54	492920	97.6	22.819076062079
54	493528	97.7	27.055512174847
54	494095	97.8	22.351230064558
54	494662	97.9	22.201904480127
54	495229	98	22.37065722352
54	495796	98.1	22.205299035976
54	496363	98.2	23.977484885408
54	496930	98.3	25.789110763687
54	497497	98.4	22.709414213947
54	498064	98.5	24.558934720615
54	498631	98.6	23.089356383875
54	499199	98.7	22.541795243307
54	499726	98.8	23.182997873269
54	500253	98.9	22.400498212796
54	500780	99	23.110290926961
54	501307	99.1	26.935812690084
54	501834	99.2	21.507865426321
54	502361	99.3	22.055370824578
54	502888	99.4	24.485095108621
54	503415	99.5	23.711168047535
54	503942	99.6	21.246498482279
54	504510	99.7	22.906554660531
54	505037	99.8	24.344896250463
54	505564	99.9	22.819901338623
54	506091	100	21.499827987557
54	506618	100.1	23.994176601793
54	507145	100.2	24.214254208749
54	507672	100.3	21.877379461308
54	508199	100.4	25.540233694606
54	508726	100.5	20.212078450916
54	509253	100.6	23.43022820191
54	509821	100.7	24.082668645218
54	510348	100.8	22.482191427787
54	510875	100.9	24.030868676452
54	511402	101	26.90474457178
54	511929	101.1	19.493933257167
54	512456	101.2	27.354696908976
54	512983	101.3	21.056325196979
54	513510	101.4	25.201995531881
54	514037	101.5	21.962852981704
54	514564	101.6	20.485910892085
54	515132	101.7	27.556202754225
54	515659	101.8	19.88021176961
54	516186	101.9	25.78789701824
54	516713	102	21.627015992403
54	517240	102.1	25.458176595981
54	517767	102.2	20.693125716864
54	518294	102.3	23.06049166445
54	518781	102.4	23.670079879429
54	519268	102.5	21.912342082688
54	519755	102.6	29.27494176112
54	520283	102.7	22.991573543479
54	520770	102.8	23.041872289572
54	521257	102.9	18.23993279682
54	521744	103	25.692592008329
54	522231	103.1	26.761796928256
54	522718	103.2	19.596041488222
54	523205	103.3	22.106056714817
54	523692	103.4	26.372325892366
54	524179	103.5	19.452058551546
54	524666	103.6	24.586499300935
54	525194	103.7	23.717375422366
54	525681	103.8	27.287305677602
54	526168	103.9	22.48099970172
54	526655	104	23.152276917399
54	527142	104.1	21.582231291813
54	527629	104.2	21.739402309185
54	528116	104.3	22.700999858452
54	528611	104.4	22.77891364493
54	529106	104.5	22.362869045868
54	529601	104.6	26.5146639548
54	530137	104.7	20.264701957542
54	530632	104.8	29.15724727991
54	531127	104.9	18.719747718663
54	531622	105	26.56482539564
54	532117	105.1	21.847449918168
54	532612	105.2	21.338928552199
54	533107	105.3	23.916694416048
54	533562	105.4	25.859935921563
54	534017	105.5	21.328462864687
54	534472	105.6	25.797729269289
54	534968	105.7	21.212727467037
54	535423	105.8	25.576232793601
54	535878	105.9	23.70902247992
54	536333	106	19.93252900153
54	536788	106.1	22.958301267489
54	537239	106.2	22.081878084472
54	537690	106.3	23.429768898133
54	538141	106.4	25.121656394372
54	538592	106.5	27.038698026659
54	539043	106.6	20.875798403272
54	539531	106.7	20.717421695109
54	539982	106.8	23.485450600803
54	540433	106.9	25.063905847965
54	540884	107	22.667026119736
54	541335	107.1	26.022795225165
54	541786	107.2	18.866801949864
54	542237	107.3	28.059621412715
54	542688	107.4	19.735921802953
54	543139	107.5	23.140098617838
54	543590	107.6	26.363145190376
54	544078	107.7	24.081247846351
54	544529	107.8	23.101548990353
54	544980	107.9	17.692410100727
54	545431	108	28.188408240288
54	545882	108.1	19.5068102629
54	546333	108.2	23.172641069589
54	546784	108.3	28.683574313078
54	547235	108.4	21.650573586983
54	547686	108.5	20.201217210761
54	548137	108.6	24.179960102088
54	548625	108.7	27.03258877085
54	549076	108.8	20.25339407091
54	549527	108.9	20.818322370637
54	549978	109	27.939877064208
54	550429	109.1	21.785590934633
54	550880	109.2	19.618391546513
54	551331	109.3	27.533391897251
54	551782	109.4	19.015436304502
54	552233	109.5	27.258668660553
54	552684	109.6	22.499559521667
54	553172	109.7	24.263151667307
54	553623	109.8	25.523098262343
54	554070	109.9	18.824056567752
54	554517	110	23.299013549363
54	554964	110.1	24.266287847093
54	555411	110.2	23.419262168209
54	555858	110.3	25.695678124545
54	556305	110.4	18.795734292055
54	556752	110.5	26.808718795497
54	557199	110.6	24.323510731113
54	557679	110.7	23.496142888877
54	558126	110.8	23.287001170087
54	558573	110.9	18.888770690016
54	559020	111	28.338948615268
54	559467	111.1	21.282752094969
54	559914	111.2	23.658013700599
54	560361	111.3	20.665377288214
54	560808	111.4	24.700365582446
54	561255	111.5	26.096568124777
54	561702	111.6	23.484550955661
54	562182	111.7	22.07653949108
54	562629	111.8	20.873129728399
54	563076	111.9	21.018187974228
54	563523	112	28.422375243903
54	563970	112.1	20.146288844418
54	564417	112.2	25.061651526291
54	564864	112.3	25.775319061177
54	565311	112.4	22.562254053
54	565758	112.5	22.102754761675
54	566205	112.6	19.155370187371
54	566685	112.7	26.923587372817
54	567132	112.8	24.254234205297
54	567579	112.9	19.160027187791
54	568026	113	27.120808989123
54	568473	113.1	23.62853208613
54	568920	113.2	18.871458061851
54	569367	113.3	26.161666826207
54	569814	113.4	26.444322332162
54	570261	113.5	22.287649924422
54	570708	113.6	21.519776297911
54	571188	113.7	21.164358381629
54	571635	113.8	22.521736124377
54	572082	113.9	28.226244134701
54	572529	114	22.586405168905
54	572976	114.1	18.990453076477
54	573423	114.2	28.41853784839
54	573870	114.3	19.366340670879
54	574313	114.4	25.638179539453
54	574756	114.5	22.424119383386
54	575199	114.6	24.23810214636
54	575671	114.7	24.503124035397
54	576114	114.8	21.892873982687
54	576557	114.9	21.038537993454
54	577000	115	26.872610214379
54	577443	115.1	18.987258318969
54	577886	115.2	26.939488691492
54	578329	115.3	24.606474986203
54	578772	115.4	19.232434116141
54	579215	115.5	22.404624283094
54	579658	115.6	22.510888370602
54	580130	115.7	26.379277328622
54	580573	115.8	21.003998515078
54	581016	115.9	24.704300702157
54	581459	116	23.649113447741
54	581902	116.1	23.937754285908
54	582345	116.2	26.418376038765
54	582788	116.3	20.296923271402
54	583231	116.4	20.717639252116
54	583674	116.5	23.877503394615
54	584117	116.6	26.087135363393
54	584589	116.7	22.115863236559
54	585032	116.8	23.332891209447
54	585475	116.9	25.578530749793
54	585918	117	21.143289512557
54	586361	117.1	25.61605406182
54	586804	117.2	20.528981466358
54	587247	117.3	24.269053654686
54	587690	117.4	24.065245755181
54	588133	117.5	23.006236417902
54	588576	117.6	20.548493546761
54	589048	117.7	23.697814391768
54	589491	117.8	21.703893143072
54	589934	117.9	27.318264201375
54	590377	118	25.023442492382
54	590820	118.1	17.994038671781
54	591263	118.2	24.876661485856
54	591714	118.3	26.433785301516
54	592165	118.4	23.618553850967
54	592616	118.5	18.890748143896
54	593067	118.6	22.822550197639
54	593547	118.7	24.226036171569
54	593998	118.8	26.737413325508
54	594449	118.9	19.957762451349
54	594900	119	24.380631095386
54	595351	119.1	23.460275530674
54	595802	119.2	21.999423643354
54	596245	119.3	23.593601245228
54	596688	119.4	22.703201971418
54	597131	119.5	26.290018981363
54	597574	119.6	23.935188470882
54	598046	119.7	19.262064617777
54	598489	119.8	27.679342105793
54	598932	119.9	21.209379484969
54	599375	120	21.857854840442
54	599818	120.1	24.33516343803
54	600261	120.2	26.322009743374
54	600704	120.3	22.629179928815
54	601147	120.4	24.227881491102
54	601590	120.5	17.996007923096
54	602033	120.6	26.778596635709
54	602505	120.7	19.177633868805
54	602948	120.8	25.850383710233
54	603391	120.9	22.989445887549
54	603834	121	24.055534145706
54	604277	121.1	24.608815224714
54	604720	121.2	23.44484445614
54	605163	121.3	22.49778039132
54	605606	121.4	22.863137800402
54	606049	121.5	20.606591485965
54	606492	121.6	23.375105910948
54	606964	121.7	23.329000753178
54	607407	121.8	26.638997923132
54	607850	121.9	23.339708988946
54	608293	122	21.836736185983
54	608736	122.1	23.176614580628
54	609179	122.2	26.667168461155
54	609622	122.3	23.811041288388
54	610065	122.4	21.956324861634
54	610508	122.5	18.824041969254
54	610951	122.6	23.615501966073
54	611423	122.7	23.408618190133
54	611866	122.8	24.568393108296
54	612309	122.9	24.15518105343
54	612752	123	22.250881846413
54	613195	123.1	24.208630625811
54	613638	123.2	24.572605475021
54	614081	123.3	22.358638524802
54	614524	123.4	21.561474811413
54	614967	123.5	23.311885786048
54	615410	123.6	22.917553743852
54	615882	123.7	25.054058655414
54	616325	123.8	21.268838095346
54	616768	123.9	24.841454940481
54	617211	124	24.242731393845
54	617654	124.1	22.998857948379
54	618097	124.2	26.547409028838
54	618540	124.3	20.425759033404
54	618983	124.4	26.332125038861
54	619426	124.5	19.087572373351
54	619869	124.6	22.525058824312
54	620341	124.7	25.491203379959
54	620784	124.8	23.171695373257
54	621227	124.9	25.130890728229
54	621670	125	21.674353270354
54	622113	125.1	22.501683513111
54	622556	125.2	21.772393798925
54	622999	125.3	27.9438197538
54	623442	125.4	20.428950235088
54	623885	125.5	20.851524408756
54	624328	125.6	28.254320626604
54	624800	125.7	23.339343674254
54	625243	125.8	19.540424932232
54	625686	125.9	24.417924874999
54	626129	126	26.638007656395
54	626572	126.1	19.299910708125
54	627015	126.2	26.084682746844
54	627458	126.3	18.849689124477
54	627901	126.4	24.388644569195
54	628344	126.5	22.427807418237
54	628787	126.6	24.51219757282
54	629259	126.7	25.21302103325
54	629702	126.8	22.664171901419
54	630145	126.9	22.989434529972
54	630588	127	24.782042644358
54	631031	127.1	20.573394442022
54	631466	127.2	26.697801444831
54	631901	127.3	22.847673517447
54	632336	127.4	21.055355651024
54	632771	127.5	22.753227844602
54	633206	127.6	24.318458010993
54	633670	127.7	23.275114333068
54	634105	127.8	23.23287878246
54	634540	127.9	22.756196095436
54	634975	128	22.435721495878
54	635410	128.1	28.103279797783
54	635845	128.2	19.028105556024
54	636280	128.3	26.73928002329
54	636715	128.4	20.668016641946
54	637150	128.5	24.049566885859
54	637585	128.6	24.340332714703
54	638049	128.7	20.829194577895
54	638484	128.8	25.021338120559
54	638919	128.9	25.309180274881
54	639354	129	18.806711241702
54	639789	129.1	24.064750339143
54	640224	129.2	26.246742084602
54	640659	129.3	19.027857943233
54	641094	129.4	23.521404321418
54	641529	129.5	27.720586561234
54	641964	129.6	23.621919080049
54	642428	129.7	21.451575610292
54	642863	129.8	21.073086866277
54	643298	129.9	23.292266844509
54	643733	130	23.895578280676
54	644168	130.1	24.147641746764
54	644603	130.2	23.1232106322
54	645038	130.3	24.286258137233
54	645473	130.4	23.745498025374
54	645908	130.5	19.305077799985
54	646343	130.6	26.421968975754
54	646807	130.7	23.043969652781
54	647242	130.8	22.638582641173
54	647677	130.9	24.436415292896
54	648120	131	24.208161311129
54	648563	131.1	19.469815457881
54	649006	131.2	24.862173857323
53	52774	22.3	-0.68573002179527
53	53597	22.4	-1.6354266186526
53	54420	22.5	-1.6097110718497
53	55243	22.6	-1.1105207978717
53	56115	22.7	-1.2768541120676
53	57014	22.8	-0.8969687237181
53	57913	22.9	-2.1353292795254
53	58812	23	-1.0359416395525
53	59711	23.1	-0.94143745003628
53	60610	23.2	-1.2689844126227
53	61509	23.3	-0.963232051012
53	62408	23.4	-1.7412021250623
53	63307	23.5	-0.34146547564397
53	64206	23.6	-1.8311387638119
53	65158	23.7	-0.61119734054195
53	66057	23.8	-1.631873161749
53	66956	23.9	-0.42297935000981
53	67855	24	-1.2349606199665
53	68754	24.1	-0.97096985978389
53	69645	24.2	4.1620402582689
53	70536	24.3	-6.1189330441346
53	71427	24.4	-0.79264494130612
53	72318	24.5	-1.2913253043092
53	73209	24.6	-0.3642111182517
53	74153	24.7	-0.93312849536261
53	75052	24.8	-0.89802365442416
53	75951	24.9	-0.98774505636563
53	76850	25	-0.61047620094591
53	77749	25.1	-1.2171160580883
53	78640	25.2	-0.76867884939119
53	79531	25.3	-0.63002647844321
53	80422	25.4	-0.77164117674393
53	81313	25.5	-1.318608350348
53	82204	25.6	-0.3812656944622
53	83148	25.7	-4.3923955911218
53	84039	25.8	-2.4102673323997
53	84930	25.9	-6.1163351376424
53	85821	26	-5.4445601791698
53	86712	26.1	-2.8466987839344
53	87603	26.2	-5.4708310742391
53	88494	26.3	-6.0417335725091
53	89385	26.4	-3.5009233536144
53	90268	26.5	-4.8955839904711
53	91151	26.6	-5.5955674250444
53	92087	26.7	-3.6696409831547
53	92970	26.8	-4.9201954399958
53	93853	26.9	-4.5547299185885
53	94736	27	-4.9788778474215
53	95603	27.1	-3.5343785260706
53	96470	27.2	-5.2911697622869
53	97337	27.3	-5.4361956502211
53	98204	27.4	-4.2273718263064
53	99071	27.5	-4.8821539959402
53	99938	27.6	-3.810023342189
53	100858	27.7	-5.5480364187234
53	101725	27.8	-3.5189584576067
53	102592	27.9	-5.3591621044463
53	103459	28	-4.162695113569
53	104326	28.1	-4.2020630862071
53	105193	28.2	-4.6845728824828
53	106060	28.3	-3.943605019247
53	106927	28.4	-5.0097503270719
53	107794	28.5	-4.4448427210381
53	108661	28.6	-4.86807491112
53	109581	28.7	-4.2873529207133
53	110448	28.8	-4.3305018312347
53	111315	28.9	-4.6362084236324
53	112174	29	-4.1367061560344
53	113033	29.1	-4.8702347921447
53	113892	29.2	-4.1951437388697
53	114751	29.3	-3.9325453218491
53	115610	29.4	-4.7894937242408
53	116461	29.5	-4.388769649284
53	117304	29.6	-3.8761157164404
53	118200	29.7	-4.4553916888398
53	119035	29.8	-4.5344565056866
53	119870	29.9	-4.3814976659666
53	120705	30	-3.7797972617496
53	121540	30.1	-4.3629723296526
53	122375	30.2	-4.2869198751006
53	123210	30.3	4.4097130471375
53	124045	30.4	4.3116134124342
53	124880	30.5	4.0928279830143
53	125715	30.6	4.374753614387
53	126603	30.7	4.2466736509698
53	127438	30.8	4.0646979912766
53	128273	30.9	4.3867679599905
53	129108	31	4.4548867130885
53	129943	31.1	4.3396582566085
53	130778	31.2	4.1474715117482
53	131613	31.3	4.0970191778848
53	132448	31.4	4.2650719135534
53	133275	31.5	-3.3806746807578
53	134102	31.6	-4.4018592487303
53	134982	31.7	-6.3160350428869
53	135809	31.8	-6.5546081664293
53	136636	31.9	-4.5125511486773
53	137463	32	-6.5940961666957
53	138290	32.1	-4.7507840338043
53	139117	32.2	-4.4972943069352
53	139936	32.3	-5.8708284618275
53	140755	32.4	-4.555658084121
53	141574	32.5	-6.1689979707882
53	142393	32.6	-4.5885299262845
53	143265	32.7	-6.0606109690752
53	144084	32.8	-4.416997982385
53	144903	32.9	-5.7171594096226
53	145722	33	-4.844298326735
53	146541	33.1	-4.3651465736679
53	147360	33.2	-5.6772940524205
53	148171	33.3	-4.5628856395556
53	148982	33.4	-5.3796788742408
53	149793	33.5	-4.5184308569761
53	150552	33.6	-4.4197291074404
53	151364	33.7	-5.2419129070151
53	152123	33.8	-4.6003718640505
53	152882	33.9	-3.960872092405
53	153641	34	-4.9296444455173
53	154400	34.1	-4.1021401661202
53	155159	34.2	-3.9383540872952
53	155918	34.3	4.4559467992047
53	156677	34.4	4.1396406299667
53	157436	34.5	4.2459177552257
53	158143	34.6	4.3509290045011
53	158903	34.7	4.187372352602
53	159610	34.8	4.1097984583815
53	160317	34.9	4.2704909088788
53	161024	35	4.4758199047996
53	161731	35.1	4.1580570416758
53	162438	35.2	4.4935868205386
53	163145	35.3	4.2513093557674
53	163852	35.4	4.3197981604608
53	164559	35.5	4.0824187366641
53	165266	35.6	4.1876606800128
53	166026	35.7	4.4933485819143
53	166733	35.8	4.4661252242862
53	167440	35.9	4.452582371165
53	168147	36	4.0694082454545
53	168854	36.1	4.294282671134
53	169561	36.2	4.2677443336579
53	170268	36.3	4.3059360052342
53	170975	36.4	4.4545016285497
53	171682	36.5	4.0942573041189
53	172337	36.6	4.2068398224888
53	173045	36.7	4.0543341669836
53	173700	36.8	4.4447648321162
53	174355	36.9	4.4729649177287
53	175010	37	4.4049142970354
53	175665	37.1	4.1622585072066
53	176320	37.2	4.2176965172519
53	176975	37.3	4.0791777686099
53	177630	37.4	4.3470706341555
53	178277	37.5	4.2231256071129
53	178924	37.6	4.2694604736403
53	179624	37.7	4.3626650835969
53	180263	37.8	4.3637048168806
53	180902	37.9	4.4926862435066
53	181541	38	4.4306415674044
53	182180	38.1	4.3688750319765
53	182819	38.2	4.2828175011207
53	183458	38.3	4.3382460803725
53	184097	38.4	4.0621068885201
53	184736	38.5	4.2777246364276
53	185375	38.6	4.2813923065318
53	186067	38.7	4.1526311088586
53	186706	38.8	1.3651290543785
53	187345	38.9	-3.9319562178975
53	187984	39	-3.0656248984368
53	188623	39.1	-3.4644561915966
53	189262	39.2	-3.3521442051336
53	189901	39.3	-3.1906468418714
53	190540	39.4	-3.2278819962447
53	191179	39.5	-3.1077107339883
53	191818	39.6	-2.6660845496616
53	192510	39.7	-2.6162288310308
53	193149	39.8	4.1619159088586
53	193788	39.9	-8.9245581294553
53	194427	40	-2.2335478556868
53	195066	40.1	-2.2068732335762
53	195705	40.2	-2.0978161641388
53	196344	40.3	-1.8758068974842
53	196983	40.4	-1.6212517101434
53	197622	40.5	-1.4564758988356
53	198261	40.6	-1.5405418432708
53	198953	40.7	-1.2180024208267
53	199592	40.8	-1.4496291225269
53	200231	40.9	-1.3711138260536
53	200870	41	-1.1964710594885
53	201509	41.1	-0.84422805724468
53	202148	41.2	-1.2446567061234
53	202787	41.3	-0.56683021971704
53	203426	41.4	-0.53502417322214
53	204065	41.5	-0.68965743239907
53	204704	41.6	-0.67877892267113
53	205396	41.7	-0.68601200777739
53	206035	41.8	-0.024813931679795
53	206674	41.9	0.099162010577416
53	207313	42	-0.19525801689262
53	207952	42.1	-0.30947165734609
53	208591	42.2	-0.34797895288708
53	209230	42.3	-0.21975737433024
53	209869	42.4	0.22502198985585
53	210508	42.5	0.15450538961765
53	211147	42.6	0.52130740892714
53	211839	42.7	0.63401680531825
53	212478	42.8	-3.2284366040004
53	213117	42.9	-3.9671710039438
53	213756	43	-4.2642993242802
53	214395	43.1	-3.1126335934772
53	215034	43.2	-3.6770251910809
53	215673	43.3	-3.5713502922915
53	216312	43.4	-3.5997007661875
53	216951	43.5	-3.1077323030738
53	217590	43.6	-3.2184449037534
53	218282	43.7	-3.1615992103924
53	218921	43.8	-3.4535034621011
53	219560	43.9	-2.9039449494168
53	220199	44	-5.4622420668361
53	220838	44.1	-0.63682542441263
53	221477	44.2	-5.422137596973
53	222116	44.3	4.0648289414355
53	222755	44.4	4.3039293066831
53	223394	44.5	4.2301883921376
53	224033	44.6	4.1356951321475
53	224725	44.7	4.2256410893868
53	225364	44.8	4.0546058103209
53	226003	44.9	4.0740493117366
53	226642	45	4.4318263217574
53	227281	45.1	4.2664834442781
53	227920	45.2	4.3080834558466
53	228559	45.3	4.1232031312189
53	229198	45.4	4.4852679492789
53	229837	45.5	4.2267687113257
53	230476	45.6	4.13464365236
53	231168	45.7	4.2694428822258
53	231807	45.8	4.4692860463634
53	232446	45.9	4.371671284223
53	233085	46	4.4393255982664
53	233724	46.1	4.0825111137237
53	234363	46.2	4.2141087430296
53	235002	46.3	0.76011651813058
53	235641	46.4	-7.1187450110591
53	236280	46.5	-6.8294854404462
53	236919	46.6	-7.1733950647952
53	237611	46.7	-7.3228587191513
53	238250	46.8	-6.6673387151055
53	238889	46.9	-7.1298180805686
53	239476	47	-6.5368884191665
53	240063	47.1	-6.7478387942568
53	240650	47.2	-6.9490687515493
53	241237	47.3	-6.3130186794016
53	241824	47.4	-6.5059002633767
53	242411	47.5	-6.4990221251207
53	242998	47.6	-6.5563978029927
53	243638	47.7	-5.9379135316804
53	244225	47.8	-6.2747919384346
53	244812	47.9	-6.1839543160067
53	245399	48	-6.1645965943333
53	245986	48.1	-5.7860536948719
53	246573	48.2	-5.7216464996738
53	247160	48.3	-5.7813001288807
53	247747	48.4	-5.2837401393761
53	248334	48.5	-5.352868909954
53	248921	48.6	-5.2911063674908
53	249561	48.7	-5.1082173685923
53	250148	48.8	-5.0239647109752
53	250735	48.9	-5.1386479370847
53	251322	49	-4.6134100899967
53	251909	49.1	-4.5614566108639
53	252496	49.2	-4.5047217671337
53	253083	49.3	-4.1543394814665
53	253670	49.4	-4.480525329859
53	254257	49.5	-3.5667953780246
53	254844	49.6	-4.0303504540632
53	255484	49.7	-2.8380900622096
53	256071	49.8	-3.0974751594065
53	256658	49.9	-2.8856282508096
53	257245	50	-1.8697152982516
53	257832	50.1	-2.2474077571094
53	258419	50.2	-1.4976565539883
53	259006	50.3	-1.2718234762876
53	259593	50.4	-1.2112515247407
53	260180	50.5	-0.78968229009509
53	260767	50.6	-0.58453846228456
53	261407	50.7	-0.54423563844853
53	261994	50.8	-0.37706854304853
53	262581	50.9	-0.11805463211835
53	263168	51	0.21985419458503
53	263755	51.1	0.062264424022938
53	264342	51.2	0.075046631146467
53	264929	51.3	0.399515234241
53	265516	51.4	0.73872748808951
53	266103	51.5	4.452822194792
53	266690	51.6	4.4952364187921
53	267330	51.7	4.0992728627287
53	267917	51.8	4.0959389039548
53	268504	51.9	4.3409282773384
53	269039	52	4.3756885491544
53	269574	52.1	4.2109778837417
53	270109	52.2	4.0889735270175
53	270644	52.3	4.4113986042794
53	271179	52.4	4.3171773767564
53	271714	52.5	4.2400320940884
53	272249	52.6	4.2987047009985
53	272837	52.7	4.415082586091
53	273372	52.8	4.4764168343972
53	273907	52.9	4.3841302608722
53	274442	53	4.2534419860225
53	274977	53.1	4.1855204565916
53	275512	53.2	4.2206212974968
53	276047	53.3	4.1700930274674
53	276582	53.4	4.449245282379
53	277117	53.5	4.4454966783989
53	277652	53.6	4.3482828970766
53	278240	53.7	4.4281219471944
53	278775	53.8	4.219744954328
53	279310	53.9	4.1940742163337
53	279845	54	4.1054931493476
53	280380	54.1	4.1546001478331
53	280915	54.2	4.241199998511
53	281450	54.3	4.4925341587979
53	281985	54.4	4.0749866247643
53	282468	54.5	4.1007514746627
53	282951	54.6	4.0737111394526
53	283487	54.7	4.1471462333459
53	283970	54.8	4.1676335015218
53	284453	54.9	4.2815528382081
53	284936	55	4.47585169191
53	285419	55.1	4.3819959076122
53	285902	55.2	4.3751618814887
53	286385	55.3	4.3734960540896
53	286868	55.4	4.4842016837094
53	287351	55.5	4.1171509579173
53	287834	55.6	4.1925636702916
53	288370	55.7	4.1646132334834
53	288853	55.8	4.3591055043158
53	289336	55.9	4.1572020767606
53	289819	56	4.105071731878
53	290302	56.1	4.154607339506
53	290785	56.2	4.2211025598692
53	291268	56.3	4.293060895591
53	291751	56.4	4.1660958148772
53	292234	56.5	4.103507387219
53	292717	56.6	4.1740510602132
53	293253	56.7	4.1686592878424
53	293736	56.8	4.3839185493998
53	294219	56.9	4.1987663470558
53	294702	57	4.3712335769436
53	295185	57.1	4.3957865886739
53	295668	57.2	4.4139590107254
53	296151	57.3	4.1750246753683
53	296634	57.4	4.2667479941156
53	297117	57.5	4.3224788671243
53	297600	57.6	4.102278549294
53	298136	57.7	4.0709675940801
53	298619	57.8	4.358238938218
53	299102	57.9	4.3459232761874
53	299585	58	4.1028363092104
53	300068	58.1	4.4020930052153
53	300551	58.2	4.1390334216413
53	301034	58.3	4.1910886071506
53	301517	58.4	4.371887670178
53	302000	58.5	4.1824114364572
53	302483	58.6	4.1120251812623
53	303019	58.7	4.4328438696103
53	303502	58.8	4.1076142194914
53	303985	58.9	4.4274894476286
53	304468	59	4.1709182364168
53	304951	59.1	4.3067952945829
53	305434	59.2	4.1898146905122
53	305917	59.3	4.2442959309323
53	306400	59.4	4.2021230728599
53	306883	59.5	4.0700889486121
53	307366	59.6	4.3569572194945
53	307902	59.7	4.1219108607271
53	308385	59.8	4.0652004893055
53	308868	59.9	4.4477231613477
53	309351	60	4.0868980162894
53	309834	60.1	4.3977664895473
53	310317	60.2	4.3044153669616
53	310800	60.3	4.35049320861
53	311283	60.4	4.4386684482568
53	311766	60.5	4.2703708403162
53	312249	60.6	4.2244086384424
53	312785	60.7	4.1272798768594
53	313268	60.8	4.4200275355485
53	313751	60.9	4.0951139685698
53	314234	61	4.203088186041
53	314717	61.1	4.1525786923128
53	315200	61.2	4.3608636795427
53	315683	61.3	4.4385169641115
53	316166	61.4	4.2327764577117
53	316649	61.5	4.1100961067831
53	317132	61.6	4.3737345097005
53	317668	61.7	4.3653750760016
53	318151	61.8	4.3338774640812
53	318634	61.9	4.3303759011906
53	319117	62	4.3624370774953
53	319600	62.1	4.4985593700316
53	320083	62.2	4.1097212660825
53	320566	62.3	4.2069888678147
53	321049	62.4	4.4527541683289
53	321532	62.5	4.256812916114
53	322015	62.6	4.3074633671553
53	322551	62.7	4.287258564611
53	323034	62.8	4.3642041509506
53	323517	62.9	4.1131171533954
53	324000	63	4.3197041638079
53	324483	63.1	4.1217492629774
53	324966	63.2	4.2862229399267
53	325449	63.3	4.372728591843
53	325932	63.4	4.1286138203927
53	326415	63.5	4.4474661435932
53	326898	63.6	4.0906877936446
53	327434	63.7	4.1483157066512
53	327917	63.8	4.1771314249258
53	328400	63.9	4.3128956175177
53	328883	64	4.0670231520664
53	329366	64.1	4.3811594761326
53	329849	64.2	4.4886554244091
53	330332	64.3	4.2214544359362
53	330815	64.4	4.2459087518044
53	331298	64.5	1.2012035459134
53	331781	64.6	-0.035295431502149
53	332317	64.7	0.21591916554605
53	332800	64.8	0.044412915722916
53	333283	64.9	-0.38935270303625
53	333766	65	0.37347763826837
53	334249	65.1	-0.30482009276746
53	334732	65.2	0.19952837547756
53	335215	65.3	-0.21170329246672
53	335698	65.4	0.35844337237066
53	336181	65.5	-0.39430805087321
53	336664	65.6	0.27625178805316
53	337192	65.7	-0.25097398812647
53	337663	65.8	-0.0029452228685756
53	338134	65.9	0.34273302844959
53	338605	66	-0.10135019678856
53	339076	66.1	0.080600963230282
53	339547	66.2	-0.35035399982007
53	340018	66.3	0.37444465099831
53	340489	66.4	-0.05176639185521
53	340956	66.5	-0.11881283875553
53	341419	66.6	0.0070180930313768
53	341923	66.7	-0.16574355434862
53	342386	66.8	0.18003177774375
53	342849	66.9	0.020503189181866
53	343312	67	-0.017932818224651
53	343775	67.1	-0.23815511780555
53	344238	67.2	0.062351778452268
53	344701	67.3	0.19703329098412
53	345156	67.4	-0.19458890977553
53	345611	67.5	0.13784469799141
53	346066	67.6	0.10752498643704
53	346554	67.7	0.08891172175062
53	347009	67.8	-0.36917706679084
53	347464	67.9	0.19368895185181
53	347919	68	-0.056953653332315
53	348374	68.1	0.092290931171704
53	348829	68.2	-0.17530022148271
53	349284	68.3	0.16335772083835
53	349739	68.4	0.031687934766538
53	350190	68.5	-0.29952391223048
53	350641	68.6	0.12523478097279
53	351121	68.7	0.18244765775748
53	351572	68.8	-0.044866218266577
53	352023	68.9	0.12684869212102
53	352474	69	-0.056499444285905
53	352925	69.1	-0.038027285376998
53	353376	69.2	-0.010970463801669
53	353827	69.3	-0.043772122997296
53	354278	69.4	0.027795809553908
53	354729	69.5	0.11558254893174
53	355180	69.6	0.0018732498516272
53	355660	69.7	-0.030461466405569
53	356111	69.8	-0.037255974160502
53	356562	69.9	-0.088449815497711
53	357013	70	0.19927438652374
53	357464	70.1	-0.10393466223029
53	357915	70.2	0.047950950160143
53	358366	70.3	-0.045280990458565
53	358817	70.4	-0.0165879448992
53	359268	70.5	0.061094629287197
53	359719	70.6	0.058300978993131
53	360199	70.7	-0.22521894966488
53	360650	70.8	-0.0931765884161
53	361101	70.9	0.1915973077412
53	361552	71	-0.25990250317847
53	362003	71.1	0.026896692335114
53	362454	71.2	0.24620355953232
53	362905	71.3	0.070167556463261
53	363356	71.4	-0.016187315387626
53	363807	71.5	-0.04132355607581
53	364258	71.6	-0.28544484655143
53	364738	71.7	0.36741541778902
53	365189	71.8	-0.22154067268126
53	365640	71.9	0.10214429536134
53	366091	72	-0.069557237508704
53	366542	72.1	-0.079936040681829
53	366993	72.2	0.1111104011536
53	367444	72.3	0.1635099884821
53	367895	72.4	-0.31867536791836
53	368346	72.5	0.20282902163459
53	368797	72.6	-0.10786541565324
53	369277	72.7	-0.046704847819612
53	369728	72.8	-0.09086680108453
53	370179	72.9	0.089601986145169
53	370630	73	-0.057153322524428
53	371081	73.1	0.12064300572966
53	371532	73.2	-0.15319948042745
53	371983	73.3	0.29669695047197
53	372434	73.4	-0.32113699541661
53	372885	73.5	0.21626407111768
53	373336	73.6	-0.1128737104009
53	373816	73.7	0.10559136236552
53	374267	73.8	0.1184337571263
53	374718	73.9	0.026031023415314
53	375169	74	-0.31735836536392
53	375620	74.1	0.066622864175585
53	376071	74.2	-0.033959560969379
53	376522	74.3	-0.078646373923377
53	376973	74.4	0.053698910877529
53	377424	74.5	0.058039383776531
53	377875	74.6	0.20540775133995
53	378355	74.7	-0.08841648454549
53	378806	74.8	0.027140047901781
53	379257	74.9	-0.034529639349756
53	379708	75	-0.018700811464853
53	380159	75.1	-0.11693593512753
53	380610	75.2	0.081032132415544
53	381061	75.3	0.16291744607734
53	381512	75.4	0.052790683996875
53	381963	75.5	-0.12485028924416
53	382414	75.6	0.08667580088364
53	382894	75.7	-0.0097014709026411
53	383345	75.8	-0.02117815209786
53	383796	75.9	-0.31032828956377
53	384247	76	0.15955825997516
53	384698	76.1	-0.094070644641775
53	385149	76.2	-0.017908233893067
53	385600	76.3	-0.052621535724029
53	386051	76.4	0.13182477311929
53	386502	76.5	-0.11242383678912
53	386953	76.6	-0.029304622218476
53	387433	76.7	0.3712205726886
53	387884	76.8	-0.23509041436476
53	388335	76.9	0.18244094835822
53	388786	77	-0.1187127065495
53	389237	77.1	0.10681854570279
53	389688	77.2	0.12302556055367
53	390139	77.3	-0.30049931000683
53	390590	77.4	0.26091906081419
53	391041	77.5	0.031244900054261
53	391528	77.6	-0.019964590505666
53	392048	77.7	-0.24717384172838
53	392535	77.8	0.14017453074921
53	393022	77.9	-0.024096966104139
53	393509	78	0.16226705879674
53	393996	78.1	-0.16377804017395
53	394483	78.2	-0.09049589411589
53	394970	78.3	0.17245847184682
53	395457	78.4	0.017234088107898
53	395944	78.5	-0.23228887649019
53	396431	78.6	0.025422430504136
53	396951	78.7	0.097344647452715
53	397438	78.8	0.028434509737352
53	397925	78.9	-0.093568287743224
53	398412	79	-0.027064175647666
53	398899	79.1	0.015247600839956
53	399386	79.2	0.23716937267452
53	399873	79.3	-0.24376205122095
53	400360	79.4	0.12049524304452
53	400847	79.5	0.10755748454251
53	401334	79.6	-0.12369379594453
53	401854	79.7	0.065601682453362
53	402341	79.8	-0.15264523462392
53	402828	79.9	0.23606905939523
53	403315	80	-0.2784271990182
53	403802	80.1	0.0083953487919786
53	404289	80.2	-0.063545515586156
53	404776	80.3	0.053673261834746
53	405263	80.4	0.25510070415919
53	405750	80.5	-0.23628244902945
53	406237	80.6	0.11453379043381
53	406757	80.7	0.1179661510745
53	407244	80.8	-0.26040468856223
53	407731	80.9	-0.071610630070822
53	408218	81	0.23209797309249
53	408705	81.1	-0.025788675143872
53	409192	81.2	0.06416084754747
53	409679	81.3	-0.1968672925257
53	410166	81.4	0.09808017915347
53	410653	81.5	-0.019161196821429
53	411140	81.6	0.11507783755661
53	411660	81.7	-0.25808770253789
53	412147	81.8	-0.024480097868889
53	412634	81.9	0.21151077209502
53	413121	82	-0.13485055142084
53	413608	82.1	-0.025417418859419
53	414095	82.2	0.18142313396091
53	414582	82.3	-0.26245012313588
53	415069	82.4	0.12609238555882
53	415556	82.5	-0.0022357176057852
53	416043	82.6	0.054055385047107
53	416563	82.7	-0.1537204977474
53	417050	82.8	0.34799134122437
53	417537	82.9	-0.11661534451413
53	418024	83	-0.12787971451175
53	418511	83.1	-0.044207092223232
53	418998	83.2	-0.09573367384732
53	419485	83.3	0.18267943372486
53	419972	83.4	-0.18850430730964
53	420459	83.5	0.06828309895937
53	420946	83.6	0.10906667638338
53	421466	83.7	-0.1831807461334
53	421953	83.8	0.25223692709112
53	422440	83.9	-0.032596853259008
53	422927	84	0.1907554065459
53	423414	84.1	-0.14740128633562
53	423901	84.2	-0.20728460027605
53	424380	84.3	0.28152727922425
53	424859	84.4	-0.343180939334
53	425338	84.5	0.073550021834663
53	425817	84.6	0.261055108218
53	426329	84.7	-0.24538856592258
53	426808	84.8	0.27711427719332
53	427287	84.9	0.002210944367107
53	427766	85	-0.36078156429575
53	428245	85.1	0.36455903680761
53	428724	85.2	-0.30852566206597
53	429203	85.3	0.021782589261434
53	429682	85.4	0.26415755075867
53	430161	85.5	-0.034884767176138
53	430640	85.6	0.087772856117283
53	431152	85.7	-0.083948735066244
53	431631	85.8	0.11722936093577
53	432110	85.9	-0.28687100579269
53	432589	86	-0.021335519500951
53	433068	86.1	-0.098177329916567
53	433547	86.2	0.38749537366677
53	434026	86.3	-0.15651406233665
53	434505	86.4	0.10061507705835
53	434984	86.5	-0.0063220021664279
53	435463	86.6	-0.28533396769781
53	435975	86.7	0.062042559147812
53	436454	86.8	0.1756064657355
53	436933	86.9	0.0048134714481307
53	437412	87	-0.25792377126635
53	437891	87.1	-0.037479905923874
53	438370	87.2	0.10053727885243
53	438849	87.3	0.15533906839558
53	439328	87.4	-0.17922043005235
53	439807	87.5	0.21185018898684
53	440286	87.6	0.029262468789213
53	440798	87.7	0.093409842951218
53	441313	87.8	-0.10248324747657
53	441792	87.9	0.096263513225097
53	442271	88	-0.066889698291206
53	442750	88.1	-0.24023790245408
53	443229	88.2	0.19306012041632
53	443708	88.3	-0.036510942201105
53	444187	88.4	-0.20917550817835
53	444666	88.5	0.0096170178847643
53	445145	88.6	0.16544777018716
53	445661	88.7	0.15515603214737
53	446140	88.8	0.022393362200788
53	446619	88.9	-0.23323147483168
53	447098	89	0.097496047255135
53	447577	89.1	0.065443635906561
53	448056	89.2	-0.20018453327943
53	448535	89.3	0.17821727036498
53	449014	89.4	0.058688313968034
53	449493	89.5	0.03902937417152
53	449972	89.6	-0.19036937799534
53	450488	89.7	-0.094001821568241
53	450967	89.8	0.16008672723544
53	451446	89.9	-0.29722085703398
53	451925	90	0.14890759480188
53	452404	90.1	0.087623117817515
53	452883	90.2	-0.14068542451128
53	453362	90.3	0.062323681369847
53	453841	90.4	0.2669242504053
53	454320	90.5	-0.2721916915965
53	454799	90.6	-0.0033598439767957
53	455315	90.7	0.014295885397573
53	455794	90.8	-0.14343636911363
53	456273	90.9	0.37620132272131
53	456752	91	-0.1300118304323
53	457231	91.1	-0.26815099882661
53	457710	91.2	0.32773040067404
53	458189	91.3	-0.06469060205859
53	458668	91.4	-0.023169946263053
53	459195	91.5	-0.17584409384291
53	459722	91.6	0.036828067107137
53	460290	91.7	0.084064926474809
53	460817	91.8	-0.15789723352064
53	461344	91.9	0.30792160334535
53	461871	92	-0.2522276979871
53	462398	92.1	-0.084243753645623
53	462925	92.2	0.012339770165326
53	463452	92.3	0.053375090088181
53	463979	92.4	-0.021711681713299
53	464506	92.5	0.35990256280634
53	465033	92.6	-0.20080213401229
53	465601	92.7	0.12430692472257
53	466128	92.8	-0.21372117174323
53	466655	92.9	0.099559726403129
53	467182	93	0.045927749422816
53	467709	93.1	-0.17309767410623
53	468236	93.2	-0.022205397707893
53	468763	93.3	0.039385965373384
53	469290	93.4	-0.059663442056674
53	469817	93.5	0.058967418666001
53	470344	93.6	0.15809226364368
53	470912	93.7	-0.12386977127754
53	471439	93.8	0.11149115444859
53	471966	93.9	0.0023831416619657
53	472493	94	0.13631137978521
53	473020	94.1	-0.13137870531061
53	473547	94.2	0.17125977755057
53	474074	94.3	-0.020880259573488
53	474601	94.4	0.01524515007624
53	475128	94.5	-0.087976854876644
53	475655	94.6	-0.23509123914408
53	476283	94.7	0.075381097302341
53	476866	94.8	-0.10563786767889
53	477449	94.9	0.056100323097752
53	478032	95	-0.009844061220079
53	478615	95.1	0.29578596751676
53	479198	95.2	-0.36923140143045
53	479781	95.3	0.046094647992874
53	480364	95.4	-0.054172513342934
53	480931	95.5	0.21735992438622
53	481498	95.6	-0.026492632005812
53	482106	95.7	0.21884705778213
53	482673	95.8	-0.1141439480125
53	483240	95.9	-0.0048959244391966
53	483807	96	-0.30124885247787
53	484374	96.1	0.39326835195531
53	484941	96.2	-0.20824573488206
53	485508	96.3	0.23075189664958
53	486075	96.4	-0.11676448256473
53	486642	96.5	-0.30010137527718
53	487209	96.6	0.030870149040183
53	487817	96.7	0.20603287912671
53	488384	96.8	-0.078114215482472
53	488951	96.9	0.10143433234184
53	489518	97	-0.085515696974454
53	490085	97.1	0.049629877950039
53	490652	97.2	0.057208762213179
53	491219	97.3	0.055787159583929
53	491786	97.4	-0.037780490820296
53	492353	97.5	-0.22835647057505
53	492920	97.6	-0.032714072708018
53	493528	97.7	0.26147413883585
53	494095	97.8	-0.066794926940901
53	494662	97.9	-0.076691645162654
53	495229	98	-0.064441584830632
53	495796	98.1	-0.075470107037106
53	496363	98.2	0.048082911595699
53	496930	98.3	0.17343809190209
53	497497	98.4	-0.041502294712714
53	498064	98.5	0.087129539810107
53	498631	98.6	-0.015458569256595
53	499199	98.7	-0.053347350808295
53	499726	98.8	-0.0084724508808165
53	500253	98.9	-0.062720282329209
53	500780	99	-0.01301324424567
53	501307	99.1	0.25247769244011
53	501834	99.2	-0.12590435505842
53	502361	99.3	-0.087030651897635
53	502888	99.4	0.082197788916503
53	503415	99.5	0.027909353538433
53	503942	99.6	-0.1433378178394
53	504510	99.7	-0.027106600231477
53	505037	99.8	0.072907120850871
53	505564	99.9	-0.033444434031864
53	506091	100	-0.12484800643286
53	506618	100.1	0.04918417978331
53	507145	100.2	0.064103168214231
53	507672	100.3	-0.098555145459258
53	508199	100.4	0.15635995224585
53	508726	100.5	-0.21458329365124
53	509253	100.6	0.01035088609207
53	509821	100.7	0.055564623093218
53	510348	100.8	-0.05593076421647
53	510875	100.9	0.05197194587673
53	511402	101	0.25098381255525
53	511929	101.1	-0.26511615947825
53	512456	101.2	0.28229599739426
53	512983	101.3	-0.15675093020548
53	513510	101.4	0.13204832130583
53	514037	101.5	-0.093655290117027
53	514564	101.6	-0.19554809862747
53	515132	101.7	0.29651049671223
53	515659	101.8	-0.23829020087135
53	516186	101.9	0.17342185940358
53	516713	102	-0.11656752292765
53	517240	102.1	0.15012894842073
53	517767	102.2	-0.18163335198764
53	518294	102.3	-0.016023949161195
53	518781	102.4	0.026401298807457
53	519268	102.5	-0.095803772227399
53	519755	102.6	0.41569603029643
53	520283	102.7	-0.023145124618935
53	520770	102.8	-0.01949168017596
53	521257	102.9	-0.35270094737648
53	521744	103	0.16710380637093
53	522231	103.1	0.24001851190114
53	522718	103.2	-0.25888655846941
53	523205	103.3	-0.082861963904008
53	523692	103.4	0.21377054377226
53	524179	103.5	-0.26803036333291
53	524666	103.6	0.090274380112518
53	525194	103.7	0.029308994009654
53	525681	103.8	0.27673166636376
53	526168	103.9	-0.05865377329755
53	526655	104	-0.011665960075362
53	527142	104.1	-0.1205335142906
53	527629	104.2	-0.10878963918657
53	528116	104.3	-0.041279428917917
53	528611	104.4	-0.035580029280382
53	529106	104.5	-0.064213135011926
53	529601	104.6	0.2243814316811
53	530137	104.7	-0.21100471175743
53	530632	104.8	0.40753353140317
53	531127	104.9	-0.31960550582738
53	531622	105	0.22710213856776
53	532117	105.1	-0.10183479012923
53	532612	105.2	-0.13643038049338
53	533107	105.3	0.043461063026911
53	533562	105.4	0.17797029947396
53	534017	105.5	-0.13774211648851
53	534472	105.6	0.17335758770351
53	534968	105.7	-0.14602089794352
53	535423	105.8	0.15779247921891
53	535878	105.9	0.027123395679496
53	536333	106	-0.23516000773526
53	536788	106.1	-0.023489248892261
53	537239	106.2	-0.084163359564258
53	537690	106.3	0.010000372503356
53	538141	106.4	0.12734426648827
53	538592	106.5	0.25936787679093
53	539043	106.6	-0.1700435000123
53	539531	106.7	-0.1798780118348
53	539982	106.8	0.013531599054133
53	540433	106.9	0.12296897505877
53	540884	107	-0.044239494565446
53	541335	107.1	0.18890473544602
53	541786	107.2	-0.30906548795755
53	542237	107.3	0.33105752274857
53	542688	107.4	-0.24885871972657
53	543139	107.5	-0.010824593959811
53	543590	107.6	0.21287332149221
53	544078	107.7	0.053034944285173
53	544529	107.8	-0.015308672434173
53	544980	107.9	-0.39072142381919
53	545431	108	0.34051496459867
53	545882	108.1	-0.26437148249244
53	546333	108.2	-0.0080349771422306
53	546784	108.3	0.37432209280091
53	547235	108.4	-0.11624319052792
53	547686	108.5	-0.21605641198114
53	548137	108.6	0.061634555552175
53	548625	108.7	0.25906072750224
53	549076	108.8	-0.2131408356945
53	549527	108.9	-0.17247084332631
53	549978	109	0.32293478006032
53	550429	109.1	-0.10635823966005
53	550880	109.2	-0.25609667259268
53	551331	109.3	0.29504774302474
53	551782	109.4	-0.29823320192513
53	552233	109.5	0.27601853267988
53	552684	109.6	-0.056181287148505
53	553172	109.7	0.066596848843616
53	553623	109.8	0.15350860889299
53	554070	109.9	-0.31246031977936
53	554517	110	0.00035402277717367
53	554964	110.1	0.067479130695602
53	555411	110.2	0.0082165341940765
53	555858	110.3	0.16608982858017
53	556305	110.4	-0.31396372255408
53	556752	110.5	0.24439108623191
53	557199	110.6	0.070204506721367
53	557679	110.7	0.012303504603892
53	558126	110.8	-0.0022936075343694
53	558573	110.9	-0.30757250179299
53	559020	111	0.35037482801123
53	559467	111.1	-0.14165410021086
53	559914	111.2	0.024168713414099
53	560361	111.3	-0.18370641174258
53	560808	111.4	0.097642026690252
53	561255	111.5	0.1937749752193
53	561702	111.6	0.011192282801531
53	562182	111.7	-0.086576238437601
53	562629	111.8	-0.16950360161715
53	563076	111.9	-0.15827285834824
53	563523	112	0.35664096364052
53	563970	112.1	-0.22016107386442
53	564417	112.2	0.12252763527215
53	564864	112.3	0.17112813316054
53	565311	112.4	-0.052984348288732
53	565758	112.5	-0.084497681830555
53	566205	112.6	-0.28854424101304
53	566685	112.7	0.2526700425544
53	567132	112.8	0.065638127282739
53	567579	112.9	-0.28841818840014
53	568026	113	0.2661233745399
53	568473	113.1	0.021916945092428
53	568920	113.2	-0.30845750891608
53	569367	113.3	0.19974724289497
53	569814	113.4	0.21786148144166
53	570261	113.5	-0.072045008267736
53	570708	113.6	-0.12483240645381
53	571188	113.7	-0.14864512629572
53	571635	113.8	-0.05337659327779
53	572082	113.9	0.34279334535817
53	572529	114	-0.050921698228876
53	572976	114.1	-0.30020689474185
53	573423	114.2	0.35619028107028
53	573870	114.3	-0.27447429767342
53	574313	114.4	0.16274953444949
53	574756	114.5	-0.061434826010327
53	575199	114.6	0.064878537843427
53	575671	114.7	0.082794944092157
53	576114	114.8	-0.098906608717471
53	576557	114.9	-0.15752754968126
53	577000	115	0.24842577546366
53	577443	115.1	-0.30057747251121
53	577886	115.2	0.25345677071023
53	578329	115.3	0.089763262972653
53	578772	115.4	-0.28383365784535
53	579215	115.5	-0.061645678966329
53	579658	115.6	-0.053835814911878
53	580130	115.7	0.21501929971855
53	580573	115.8	-0.15957805960205
53	581016	115.9	0.098397609684611
53	581459	116	0.024462957296052
53	581902	116.1	0.04431753574174
53	582345	116.2	0.21606770072829
53	582788	116.3	-0.21018989364386
53	583231	116.4	-0.17955353882861
53	583674	116.5	0.04106544877871
53	584117	116.6	0.19408297946214
53	584589	116.7	-0.082868999987866
53	585032	116.8	0.0021797764696885
53	585475	116.9	0.15796463418518
53	585918	117	-0.15091102514411
53	586361	117.1	0.16051520844918
53	586804	117.2	-0.1936211730586
53	587247	117.3	0.067312504746937
53	587690	117.4	0.052686184295467
53	588133	117.5	-0.021170563960951
53	588576	117.6	-0.1916226239176
53	589048	117.7	0.028338677762036
53	589491	117.8	-0.11027827566721
53	589934	117.9	0.28013121929249
53	590377	118	0.11888052618602
53	590820	118.1	-0.36985667328118
53	591263	118.2	0.1105305505218
53	591714	118.3	0.21773670004912
53	592165	118.4	0.02086792162153
53	592616	118.5	-0.30744014305526
53	593067	118.6	-0.032337101013411
53	593547	118.7	0.065311272244415
53	593998	118.8	0.23906316321813
53	594449	118.9	-0.23310847951798
53	594900	119	0.075524371897302
53	595351	119.1	0.011114671826391
53	595802	119.2	-0.090358751511701
53	596245	119.3	0.020933280454472
53	596688	119.4	-0.041017891222097
53	597131	119.5	0.20816640184492
53	597574	119.6	0.043288225459364
53	598046	119.7	-0.28138231431363
53	598489	119.8	0.30474596227286
53	598932	119.9	-0.14633748818888
53	599375	120	-0.10031181445811
53	599818	120.1	0.072337747493307
53	600261	120.2	0.2096352688735
53	600704	120.3	-0.048049512540445
53	601147	120.4	0.063204244512605
53	601590	120.5	-0.36979953321861
53	602033	120.6	0.24238799504239
53	602505	120.7	-0.28689049748941
53	602948	120.8	0.17832998129308
53	603391	120.9	-0.021490492718286
53	603834	121	0.052647732314668
53	604277	121.1	0.090655513526841
53	604720	121.2	0.009246656682862
53	605163	121.3	-0.056536881322984
53	605606	121.4	-0.030783419392577
53	606049	121.5	-0.18721791263665
53	606492	121.6	0.0062971387174571
53	606964	121.7	0.0030518648797084
53	607407	121.8	0.23270755391565
53	607850	121.9	0.0021171883796711
53	608293	122	-0.10220512712841
53	608736	122.1	-0.0084894650964884
53	609179	122.2	0.23373015626568
53	609622	122.3	0.033922935405215
53	610065	122.4	-0.094996178580899
53	610508	122.5	-0.31180692611962
53	610951	122.6	0.023024590755867
53	611423	122.7	0.0084997691796218
53	611866	122.8	0.088931330374891
53	612309	122.9	0.059614201413893
53	612752	123	-0.072971707291387
53	613195	123.1	0.063419472926753
53	613638	123.2	0.08821449105163
53	614081	123.3	-0.066042871051479
53	614524	123.4	-0.12091740943724
53	614967	123.5	0.0014383439091148
53	615410	123.6	-0.025943490467029
53	615882	123.7	0.12251643139166
53	616325	123.8	-0.14107656665146
53	616768	123.9	0.10790007712785
53	617211	124	0.065572631405644
53	617654	124.1	-0.021212576993221
53	618097	124.2	0.22511187305206
53	618540	124.3	-0.2012203018181
53	618983	124.4	0.21000441909997
53	619426	124.5	-0.29418669902952
53	619869	124.6	-0.053523427876598
53	620341	124.7	0.15269928878404
53	620784	124.8	-0.0093434275360949
53	621227	124.9	0.12665155070138
53	621670	125	-0.11408137228571
53	622113	125.1	-0.055864949617543
53	622556	125.2	-0.10609826225554
53	622999	125.3	0.32284638670973
53	623442	125.4	-0.20084883724344
53	623885	125.5	-0.17014364898202
53	624328	125.6	0.34474450248524
53	624800	125.7	0.0013090455090037
53	625243	125.8	-0.26237025983868
53	625686	125.9	0.078017885517312
53	626129	126	0.23144153764008
53	626572	126.1	-0.2793844777392
53	627015	126.2	0.1934259335976
53	627458	126.3	-0.31008067242801
53	627901	126.4	0.076612922537578
53	628344	126.5	-0.060036042693525
53	628787	126.6	0.085067040310278
53	629259	126.7	0.1330729714595
53	629702	126.8	-0.044740459334633
53	630145	126.9	-0.02185148431451
53	630588	127	0.10268844694366
53	631031	127.1	-0.19012115348595
53	631466	127.2	0.2362176695955
53	631901	127.3	-0.032586023525809
53	632336	127.4	-0.15675318378491
53	632771	127.5	-0.037804735160876
53	633206	127.6	0.071092888398567
53	633670	127.7	-0.0018189772382016
53	634105	127.8	-0.0047371573629817
53	634540	127.9	-0.037787158938585
53	634975	128	-0.059766449988814
53	635410	128.1	0.33385869443883
53	635845	128.2	-0.29822216369212
53	636280	128.3	0.23900646331022
53	636715	128.4	-0.18396400439087
53	637150	128.5	0.052018805325531
53	637585	128.6	0.071817400411192
53	638049	128.7	-0.17236463067817
53	638484	128.8	0.119794914918
53	638919	128.9	0.13888404120223
53	639354	129	-0.31337869106792
53	639789	129.1	0.0538157497882
53	640224	129.2	0.20480481055564
53	640659	129.3	-0.29765850417313
53	641094	129.4	0.016384168784143
53	641529	129.5	0.30759286038808
53	641964	129.6	0.021044618322037
53	642428	129.7	-0.12970305170164
53	642863	129.8	-0.15508468172044
53	643298	129.9	5.0307135097682e-005
53	643733	130	0.041922495444311
53	644168	130.1	0.05911278245037
53	644603	130.2	-0.012400950829061
53	645038	130.3	0.068393718393054
53	645473	130.4	0.030381776194588
53	645908	130.5	-0.2780736967572
53	646343	130.6	0.21787904938684
53	646807	130.7	-0.018085794663065
53	647242	130.8	-0.046093204419577
53	647677	130.9	0.07899734065866
53	648120	131	0.062589636957284
53	648563	131.1	-0.26674726631029
53	649006	131.2	0.1094494389254
52	51951	22.2	40.642318512015
52	52774	22.3	40.573745509836
52	53597	22.4	40.41020284797
52	54420	22.5	40.249231740785
52	55243	22.6	40.138179660998
52	56115	22.7	40.010494249791
52	57014	22.8	39.92079737742
52	57913	22.9	39.707264449467
52	58812	23	39.603670285512
52	59711	23.1	39.509526540508
52	60610	23.2	39.382628099246
52	61509	23.3	39.286304894145
52	62408	23.4	39.112184681639
52	63307	23.5	39.078038134074
52	64206	23.6	38.894924257693
52	65158	23.7	38.833804523639
52	66057	23.8	38.670617207464
52	66956	23.9	38.628319272463
52	67855	24	38.504823210466
52	68754	24.1	38.407726224488
52	69645	24.2	38.823930250315
52	70536	24.3	38.212036945901
52	71427	24.4	38.132772451771
52	72318	24.5	38.00363992134
52	73209	24.6	37.967218809515
52	74153	24.7	37.873905959978
52	75052	24.8	37.784103594536
52	75951	24.9	37.685329088899
52	76850	25	37.624281468805
52	77749	25.1	37.502569862996
52	78640	25.2	37.425701978057
52	79531	25.3	37.362699330212
52	80422	25.4	37.285535212538
52	81313	25.5	37.153674377503
52	82204	25.6	37.115547808057
52	83148	25.7	36.676308248945
52	84039	25.8	36.435281515705
52	84930	25.9	35.823648001941
52	85821	26	35.279191984024
52	86712	26.1	34.99452210563
52	87603	26.2	34.447438998206
52	88494	26.3	33.843265640955
52	89385	26.4	33.493173305594
52	90268	26.5	33.003614906547
52	91151	26.6	32.444058164042
52	92087	26.7	32.077094065727
52	92970	26.8	31.585074521727
52	93853	26.9	31.129601529869
52	94736	27	30.631713745126
52	95603	27.1	30.278275892519
52	96470	27.2	29.749158916291
52	97337	27.3	29.205539351269
52	98204	27.4	28.782802168638
52	99071	27.5	28.294586769044
52	99938	27.6	27.913584434825
52	100858	27.7	27.358780792953
52	101725	27.8	27.006884947192
52	102592	27.9	26.470968736747
52	103459	28	26.05469922539
52	104326	28.1	25.63449291677
52	105193	28.2	25.166035628521
52	106060	28.3	24.771675126597
52	106927	28.4	24.27070009389
52	107794	28.5	23.826215821786
52	108661	28.6	23.339408330674
52	109581	28.7	22.910673038602
52	110448	28.8	22.477622855479
52	111315	28.9	22.014002013116
52	112174	29	21.600331397512
52	113033	29.1	21.113307918298
52	113892	29.2	20.693793544411
52	114751	29.3	20.300539012226
52	115610	29.4	19.821589639802
52	116461	29.5	19.382712674873
52	117304	29.6	18.995101103229
52	118200	29.7	18.549561934345
52	119035	29.8	18.096116283777
52	119870	29.9	17.65796651718
52	120705	30	17.279986791005
52	121540	30.1	16.84368955804
52	122375	30.2	16.41499757053
52	123210	30.3	16.855968875244
52	124045	30.4	17.287130216487
52	124880	30.5	17.696413014788
52	125715	30.6	18.133888376227
52	126603	30.7	18.558555741324
52	127438	30.8	18.965025540452
52	128273	30.9	19.403702336451
52	129108	31	19.84919100776
52	129943	31.1	20.28315683342
52	130778	31.2	20.697903984595
52	131613	31.3	21.107605902384
52	132448	31.4	21.534113093739
52	133275	31.5	21.196045625663
52	134102	31.6	20.75585970079
52	134982	31.7	20.124256196502
52	135809	31.8	19.468795379859
52	136636	31.9	19.017540264991
52	137463	32	18.358130648321
52	138290	32.1	17.883052244941
52	139117	32.2	17.433322814247
52	139936	32.3	16.846239968065
52	140755	32.4	16.390674159653
52	141574	32.5	15.773774362574
52	142393	32.6	15.314921369945
52	143265	32.7	14.708860273038
52	144084	32.8	14.267160474799
52	144903	32.9	13.695444533837
52	145722	33	13.211014701164
52	146541	33.1	12.774500043797
52	147360	33.2	12.206770638555
52	148171	33.3	11.750482074599
52	148982	33.4	11.212514187175
52	149793	33.5	10.760671101477
52	150552	33.6	10.318698190733
52	151364	33.7	9.7945069000319
52	152123	33.8	9.3344697136268
52	152882	33.9	8.9383825043863
52	153641	34	8.4454180598346
52	154400	34.1	8.0352040432226
[...]
40	681620	139	2965.6302401705
40	682035	139.1	2968.6800201901
40	682450	139.2	2971.72487275
40	682865	139.3	2974.7747324872
40	683280	139.4	2977.8252097957
40	683695	139.5	2980.869401725
40	684110	139.6	2983.9149105754
40	684525	139.7	2986.9627717845
40	684940	139.8	2990.0145320057
40	685355	139.9	2993.0666379522
40	685770	140	2996.1155785209
40	686185	140.1	2999.1662328152
40	686600	140.2	3002.2117595628
40	687015	140.3	3005.2676862424
40	687430	140.4	3008.3237889633
40	687845	140.5	3011.3719888123
40	688260	140.6	3014.4163046031
40	688675	140.7	3017.4676096019
40	689090	140.8	3020.5163518949
40	689505	140.9	3023.5634829774
40	689920	141	3026.6193864738
40	690335	141.1	3029.6714796261
40	690750	141.2	3032.7208430704
40	691165	141.3	3035.7726829428
40	691580	141.4	3038.8186648637
40	691995	141.5	3041.8658721057
40	692410	141.6	3044.9200248745
40	692825	141.7	3047.9767353051
40	693240	141.8	3051.0312970081
40	693655	141.9	3054.0780656783
40	694070	142	3057.1192732704
40	694485	142.1	3060.1743267802
40	694900	142.2	3063.218902995
40	695315	142.3	3066.2676497804
40	695730	142.4	3069.3207248554
40	696145	142.5	3072.3661688176
40	696560	142.6	3075.411132823
40	696975	142.7	3078.4640499027
40	697390	142.8	3081.5098409059
40	697805	142.9	3084.5592230959
40	698220	143	3087.6063318683
40	698635	143.1	3090.6606341044
40	699050	143.2	3093.7107654182
40	699465	143.3	3096.7614010039
40	699880	143.4	3099.8071069037
40	700295	143.5	3102.8578999594
40	700710	143.6	3105.9130010227
40	701125	143.7	3108.9596744578
40	701540	143.8	3112.005908614
40	701955	143.9	3115.0492163159
40	702370	144	3118.1024170541
40	702785	144.1	3121.1564898137
40	703200	144.2	3124.1973725573
40	703615	144.3	3127.2439534052
40	704030	144.4	3130.2946683457
40	704445	144.5	3133.3408864661
40	704860	144.6	3136.3889885114
40	705275	144.7	3139.4391907267
40	705690	144.8	3142.4915609237
40	706105	144.9	3145.537285846
40	706520	145	3148.5876958095
40	706935	145.1	3151.6380720392
40	707350	145.2	3154.6924794295
40	707765	145.3	3157.7356006062
40	708180	145.4	3160.7873781414
40	708595	145.5	3163.8370562802
40	709010	145.6	3166.8844883145
40	709425	145.7	3169.9309549578
40	709840	145.8	3172.9716180897
40	710255	145.9	3176.0221782299
40	710670	146	3179.0685339155
40	711085	146.1	3182.123256755
40	711500	146.2	3185.1744345653
40	711915	146.3	3188.2202672911
40	712330	146.4	3191.2637584494
40	712745	146.5	3194.3161425633
40	713160	146.6	3197.367081393
40	713575	146.7	3200.409250493
40	713990	146.8	3203.4508002234
40	714397	146.9	3206.5030803635
40	714804	147	3209.5555906697
40	715211	147.1	3212.6073084828
40	715618	147.2	3215.6498012888
40	716025	147.3	3218.6949633442
40	716432	147.4	3221.7403678165
40	716839	147.5	3224.7926767975
40	717246	147.6	3227.8384062119
40	717653	147.7	3230.8871603269
40	718060	147.8	3233.9327739042
40	718467	147.9	3236.9759044217
40	718874	148	3240.0249984972
40	719281	148.1	3243.0697465614
40	719688	148.2	3246.1120433888
40	720095	148.3	3249.1568467897
40	720502	148.4	3252.2114289319
40	720909	148.5	3255.2532132519
40	721316	148.6	3258.3082777971
40	721723	148.7	3261.35480894
40	722130	148.8	3264.4026131981
40	722537	148.9	3267.4480921479
40	722944	149	3270.4863083898
40	723351	149.1	3273.536025599
40	723758	149.2	3276.5898897662
40	724165	149.3	3279.641670097
40	724572	149.4	3282.6898393277
40	724979	149.5	3285.7340560381
40	725386	149.6	3288.7859418938
40	725793	149.7	3291.8357950306
40	726200	149.8	3294.8895232011
40	726607	149.9	3297.9430881501
40	727014	150	3300.9884482138
40	727421	150.1	3304.040594915
40	727820	150.2	3307.0925149749
40	728219	150.3	3310.1466785807
40	728618	150.4	3313.1974567797
40	729017	150.5	3316.2565604198
40	729416	150.6	3319.3085000555
40	729815	150.7	3322.3583604224
40	730214	150.8	3325.4073440167
40	730613	150.9	3328.462924643
40	731012	151	3331.5070681965
40	731411	151.1	3334.55669504
40	731810	151.2	3337.5987692857
40	732209	151.3	3340.6468239514
40	732608	151.4	3343.6924480009
40	733007	151.5	3346.7428630372
40	733406	151.6	3349.8070990571
40	733805	151.7	3352.8693187785
40	734204	151.8	3355.9361911533
40	734603	151.9	3359.0040316959
40	735002	152	3362.0750075779
40	735401	152.1	3365.1402030524
40	735800	152.2	3368.2066942104
40	736199	152.3	3371.2684402196
40	736598	152.4	3374.3405675364
40	736997	152.5	3377.4122508895
40	737396	152.6	3380.4773189174
40	737795	152.7	3383.5473132126
40	738194	152.8	3386.6197176914
40	738593	152.9	3389.6847605354
40	738992	153	3392.7536321313
40	739391	153.1	3395.82556552
40	739790	153.2	3398.8975664795
40	740189	153.3	3401.9601903386
40	740580	153.4	3405.0320990583
40	740971	153.5	3408.1041225465
40	741362	153.6	3411.1669071847
40	741753	153.7	3414.2360827906
40	742144	153.8	3417.3071985805
40	742535	153.9	3420.3764607343
40	742926	154	3423.4422984058
40	743317	154.1	3426.5146484208
40	743708	154.2	3429.5851840056
40	744099	154.3	3432.6530049173
40	744490	154.4	3435.7270052265
40	744881	154.5	3438.7900182299
40	745272	154.6	3441.8548205174
40	745663	154.7	3444.9215510936
40	746054	154.8	3447.9949553385
40	746445	154.9	3451.0620637806
40	746836	155	3454.1284778816
40	747227	155.1	3457.1921600027
40	747618	155.2	3460.2596029227
40	748009	155.3	3463.3309224926
40	748400	155.4	3466.4032391087
40	748791	155.5	3469.4692611014
40	749182	155.6	3472.5396668969
40	749573	155.7	3475.6025613347
40	749964	155.8	3478.6695574249
40	750355	155.9	3481.741542344
40	750746	156	3484.8047975177
40	751137	156.1	3487.8768643297
40	751528	156.2	3490.9386990314
40	751919	156.3	3494.0099673408
40	752249	156.4	3497.0789641996
40	752579	156.5	3500.147539372
40	752909	156.6	3503.2140721001
40	753239	156.7	3506.2829374096
40	753569	156.8	3509.3519522288
40	753899	156.9	3512.4207836705
40	754229	157	3515.4932325093
40	754559	157.1	3518.5579804715
40	754889	157.2	3521.6317146893
40	755219	157.3	3524.6939660535
40	755549	157.4	3527.7673262179
40	755879	157.5	3530.8356990544
40	756209	157.6	3533.902660016
40	756539	157.7	3536.9753554509
40	756861	157.8	3540.0489030358
40	757183	157.9	3543.1142952643
40	757505	158	3546.1883150297
40	757827	158.1	3549.2524407248
40	758149	158.2	3552.322496433
40	758471	158.3	3555.3949076509
40	758793	158.4	3558.4567135639
40	759115	158.5	3561.5234982446
40	759437	158.6	3564.589070086
40	759759	158.7	3567.6522901453
40	760081	158.8	3570.7164099101
40	760403	158.9	3573.7896878692
40	760725	159	3576.8631221051
40	761047	159.1	3579.9287260058
40	761369	159.2	3582.9941429488
40	761691	159.3	3586.0673352521
40	762013	159.4	3589.1327482544
40	762335	159.5	3592.1978174919
40	762657	159.6	3595.2671869261
40	762979	159.7	3598.3411304948
40	763301	159.8	3601.4148890108
40	763623	159.9	3604.4860546363
40	763945	160	3607.5541590777
40	764267	160.1	3610.621636494
40	764589	160.2	3613.6902251645
40	764911	160.3	3616.7533123865
40	765233	160.4	3619.8180129893
40	765555	160.5	3622.888372537
40	765877	160.6	3625.9532009783
40	766199	160.7	3629.0235942588
40	766521	160.8	3632.0905167925
40	766843	160.9	3635.1573880739
40	767165	161	3638.227255895
40	767487	161.1	3641.2908424407
40	767809	161.2	3644.3579820995
40	768131	161.3	3647.4219140081
40	768453	161.4	3650.4956475452
40	768775	161.5	3653.5572716645
40	769097	161.6	3656.6270522443
40	769419	161.7	3659.6946696171
40	769741	161.8	3662.7615946
40	770063	161.9	3665.8344710966
40	770385	162	3668.8992465644
40	770658	162.1	3671.9699333251
40	770931	162.2	3675.0350191514
40	771204	162.3	3678.1049075178
40	771477	162.4	3681.1705549381
40	771750	162.5	3684.2345865784
40	772023	162.6	3687.3025460081
40	772296	162.7	3690.3724245242
40	772569	162.8	3693.4369808723
40	772842	162.9	3696.5050595288
40	773115	163	3699.5789786809
40	773388	163.1	3702.6413874498
40	773661	163.2	3705.7149090979
40	773934	163.3	3708.7801558214
40	774207	163.4	3711.8476435897
40	774480	163.5	3714.9184674701
40	774753	163.6	3717.9848317542
40	775026	163.7	3721.0532522717
40	775299	163.8	3724.1199078342
40	775572	163.9	3727.1880106309
40	775845	164	3730.254732293
40	776118	164.1	3733.3202194834
40	776391	164.2	3736.3926840514
40	776664	164.3	3739.4596429055
40	776937	164.4	3742.5215740646
40	777210	164.5	3745.5956235564
40	777483	164.6	3748.6619014508
40	777756	164.7	3751.7301833883
40	778029	164.8	3754.8003709142
40	778302	164.9	3757.8631445037
40	778538	165	3760.935377645
40	778774	165.1	3764.0004965206
40	779010	165.2	3767.071734604
40	779246	165.3	3770.1402315802
40	779482	165.4	3773.2071593327
40	779718	165.5	3776.2780797989
40	779954	165.6	3779.342951206
40	780190	165.7	3782.4144614132
40	780426	165.8	3785.4818674106
40	780662	165.9	3788.5519087188
40	780898	166	3791.6140344787
40	781134	166.1	3794.6764174342
40	781370	166.2	3797.7429197154
40	781606	166.3	3800.8047963607
40	781842	166.4	3803.8680648516
40	782078	166.5	3806.9361001901
40	782314	166.6	3810.0035308247
40	782550	166.7	3813.06704775
40	782786	166.8	3816.1292781187
40	783022	166.9	3819.1963994483
40	783258	167	3822.2582798347
40	783494	167.1	3825.3278449049
40	783730	167.2	3828.401604743
40	783966	167.3	3831.4693917222
40	784202	167.4	3834.5401385347
40	784438	167.5	3837.6086759856
40	784674	167.6	3840.6718760862
40	784910	167.7	3843.7360776697
40	785146	167.8	3846.8036305047
40	785382	167.9	3849.8756333458
40	785618	168	3852.9443389419
40	785854	168.1	3856.0108119243
40	786090	168.2	3859.0736644959
40	786326	168.3	3862.1425169386
40	786562	168.4	3865.2070491928
40	786798	168.5	3868.2772532355
40	787034	168.6	3871.3463429234
40	787270	168.7	3874.4134639696
40	787506	168.8	3877.4755033737
40	787742	168.9	3880.5462358625
40	787978	169	3883.6146799017
40	788214	169.1	3886.6809984545
40	788450	169.2	3889.7498722543
40	788686	169.3	3892.812189863
40	788922	169.4	3895.8818651837
40	789158	169.5	3898.947071982
40	789394	169.6	3902.0156151443
40	789630	169.7	3905.0887460195
40	789866	169.8	3908.1578649819
40	790102	169.9	3911.2269723943
40	790338	170	3914.2990775571
40	790574	170.1	3917.3712313682
40	790810	170.2	3920.4428568536
40	791046	170.3	3923.5073764007
40	791282	170.4	3926.5728998523
40	791518	170.5	3929.6467274935
40	791754	170.6	3932.7170386732
40	791990	170.7	3935.7872514597
40	792226	170.8	3938.85981712
40	792462	170.9	3941.9279720783
40	792698	171	3945.0015327142
40	792934	171.1	3948.072338355
40	793170	171.2	3951.1360997619
40	793406	171.3	3954.1980718868
40	793642	171.4	3957.2712008759
40	793878	171.5	3960.3377415832
40	794114	171.6	3963.4025581278
40	794350	171.7	3966.4741273927
40	794586	171.8	3969.5393315243
40	794822	171.9	3972.6016668736
40	795058	172	3975.668777406
40	795294	172.1	3978.7359234349
40	795530	172.2	3981.8073844719
40	795766	172.3	3984.8718229314
40	796002	172.4	3987.9379205751
40	796238	172.5	3991.0030047758
40	796474	172.6	3994.0741729873
40	796710	172.7	3997.1377966697
40	796946	172.8	4000.2083907794
40	797182	172.9	4003.2725992954
40	797418	173	4006.3362446434
40	797654	173.1	4009.4066813804
40	797890	173.2	4012.4797272973
40	798126	173.3	4015.5497428886
40	798362	173.4	4018.6169457232
40	798598	173.5	4021.6877794194
40	798834	173.6	4024.7511282711
40	799070	173.7	4027.8180119462
40	799306	173.8	4030.888045464
40	799542	173.9	4033.9528488351
40	799778	174	4037.0192501529
40	800014	174.1	4040.0899579687
40	800250	174.2	4043.1551529488
40	800486	174.3	4046.2201715485
40	800722	174.4	4049.2921232669
40	800958	174.5	4052.3600993635
40	801194	174.6	4055.4227143461
40	801430	174.7	4058.4887653546
40	801666	174.8	4061.557120681
40	801902	174.9	4064.6215109335
40	802138	175	4067.6861759736
40	802374	175.1	4070.7564604525
40	802610	175.2	4073.8215883377
40	802846	175.3	4076.8938378909
40	803082	175.4	4079.9628972836
40	803318	175.5	4083.0351730733
40	803554	175.6	4086.1032376539
40	803790	175.7	4089.1654816276
40	804026	175.8	4092.2288498615
40	804262	175.9	4095.2995831713
40	804498	176	4098.3672879856
40	804734	176.1	4101.4290251386
40	804970	176.2	4104.4963438365
40	805206	176.3	4107.5698476208
40	805442	176.4	4110.6334876994
40	805678	176.5	4113.6961843855
40	805914	176.6	4116.7658941479
40	806150	176.7	4119.8339023049
40	806386	176.8	4122.9069257021
40	806622	176.9	4125.9720286576
40	806858	177	4129.0340923311
40	807094	177.1	4132.1040090964
40	807330	177.2	4135.1669824206
40	807566	177.3	4138.238591312
40	807802	177.4	4141.3040150395
40	808038	177.5	4144.3704510813
40	808274	177.6	4147.4429044913
40	808510	177.7	4150.5109375731
40	808746	177.8	4153.575598924
40	808982	177.9	4156.6373861356
40	809218	178	4159.707736163
40	809454	178.1	4162.7760400434
40	809690	178.2	4165.8421049622
40	809926	178.3	4168.9051043916
40	810162	178.4	4171.9762560347
40	810398	178.5	4175.0433199445
40	810634	178.6	4178.1063314362
40	810870	178.7	4181.171715654
40	811106	178.8	4184.2365885517
40	811301	178.9	4187.3073449699
40	811496	179	4190.3733581458
40	811691	179.1	4193.4414444262
40	811886	179.2	4196.5097721267
40	812081	179.3	4199.5720438759
40	812276	179.4	4202.6454471545
40	812471	179.5	4205.7189113649
40	812666	179.6	4208.7920612152
40	812861	179.7	4211.8648576739
40	813056	179.8	4214.9286262909
40	813251	179.9	4218.000312888
40	813446	180	4221.0691654086
40	813641	180.1	4224.1383802858
40	813836	180.2	4227.2040625126
40	814031	180.3	4230.2763586607
40	814226	180.4	4233.3435549215
40	814421	180.5	4236.4157824378
40	814616	180.6	4239.4877283919
40	814811	180.7	4242.5571330419
40	815006	180.8	4245.6244752116
40	815201	180.9	4248.6876278713
40	815396	181	4251.7539095544
40	815591	181.1	4254.8224541327
40	815786	181.2	4257.8866753518
40	815981	181.3	4260.9524875037
40	816176	181.4	4264.0249911543
40	816371	181.5	4267.0954834805
40	816566	181.6	4270.1686021927
40	816761	181.7	4273.2389177866
40	816956	181.8	4276.3104451777
40	817151	181.9	4279.3762717856
40	817346	182	4282.4501965382
40	817541	182.1	4285.5194249889
40	817736	182.2	4288.5892883149
40	817931	182.3	4291.6606102246
40	818126	182.4	4294.7241046452
40	818321	182.5	4297.7918037178
40	818516	182.6	4300.8548013704
40	818711	182.7	4303.9278075674
40	818906	182.8	4306.9918330022
40	819101	182.9	4310.0536374785
40	819296	183	4313.1251384948
40	819491	183.1	4316.1907287798
40	819686	183.2	4319.2640830529
40	819881	183.3	4322.334308221
40	820047	183.4	4325.4027309146
40	820213	183.5	4328.4654342411
40	820379	183.6	4331.536258471
40	820545	183.7	4334.6009709632
40	820711	183.8	4337.6632399392
40	820877	183.9	4340.7281112727
40	821043	184	4343.7904488128
40	821209	184.1	4346.8592155542
40	821375	184.2	4349.9247379491
40	821541	184.3	4352.9905673643
40	821707	184.4	4356.0591920287
40	821873	184.5	4359.1253057059
40	822039	184.6	4362.1914150601
40	822205	184.7	4365.2609131981
40	822371	184.8	4368.3315351058
40	822537	184.9	4371.4004175421
40	822703	185	4374.4646415615
40	822869	185.1	4377.5328837282
40	823035	185.2	4380.5971721994
40	823201	185.3	4383.6632641653
40	823367	185.4	4386.7351468445
40	823533	185.5	4389.8044044027
40	823699	185.6	4392.8729804378
40	823865	185.7	4395.9368575465
40	824031	185.8	4399.0099307466
40	824197	185.9	4402.0759816345
40	824363	186	4405.1433501499
40	824529	186.1	4408.2163986227
40	824695	186.2	4411.2878117037
40	824861	186.3	4414.3611723402
40	825027	186.4	4417.424812847
40	825193	186.5	4420.4948155249
40	825359	186.6	4423.5620397958
40	825525	186.7	4426.6283714203
40	825691	186.8	4429.6900035399
40	825857	186.9	4432.764026701
40	826023	187	4435.8347136415
40	826189	187.1	4438.9006885106
40	826355	187.2	4441.9664345536
40	826521	187.3	4445.0381386036
40	826687	187.4	4448.1115805561
40	826853	187.5	4451.1839902165
40	827019	187.6	4454.2459924085
40	827185	187.7	4457.3120078142
40	827351	187.8	4460.3811120777
40	827517	187.9	4463.4438890349
40	827683	188	4466.511986714
40	827849	188.1	4469.5779474989
40	828015	188.2	4472.6450340381
40	828181	188.3	4475.7125661148
40	828347	188.4	4478.7854785319
40	828513	188.5	4481.8480132972
40	828679	188.6	4484.9198340123
40	828845	188.7	4487.9844260371
40	829011	188.8	4491.0477438941
40	829177	188.9	4494.1181794009
40	829343	189	4497.1806091005
40	829509	189.1	4500.243284767
40	829675	189.2	4503.3078898728
40	829841	189.3	4506.3704272567
40	830007	189.4	4509.4428973453
40	830173	189.5	4512.5131496281
40	830339	189.6	4515.584283463
40	830505	189.7	4518.6573733567
40	830671	189.8	4521.7189685768
40	830837	189.9	4524.7902046458
40	831003	190	4527.8613252136
40	831169	190.1	4530.9297456059
40	831335	190.2	4533.9920752895
40	831501	190.3	4537.0640527772
40	831667	190.4	4540.1346210945
40	831833	190.5	4543.1988778022
40	831999	190.6	4546.2638874065
40	832165	190.7	4549.3370745774
40	832331	190.8	4552.4083782916
40	832497	190.9	4555.4726373298
40	832663	191	4558.5406209181
40	832829	191.1	4561.6120571807
40	832995	191.2	4564.674066307
40	833161	191.3	4567.7419410229
40	833327	191.4	4570.8058735377
40	833493	191.5	4573.8751287293
40	833659	191.6	4576.9472845862
40	833825	191.7	4580.0129536876
40	833991	191.8	4583.0801871946
40	834157	191.9	4586.1449191603
40	834323	192	4589.2173269471
40	834489	192.1	4592.2910918445
40	834655	192.2	4595.3637726917
40	834821	192.3	4598.4354685171
40	834987	192.4	4601.5049360027
40	835153	192.5	4604.5786177278
40	835319	192.6	4607.6448957985
40	835485	192.7	4610.7090827386
40	835651	192.8	4613.7817061788
40	835817	192.9	4616.848768736
40	835983	193	4619.9140970508
40	836149	193.1	4622.987057582
40	836315	193.2	4626.0596321438
40	836481	193.3	4629.128156943
40	836647	193.4	4632.1926703229
40	836813	193.5	4635.2627354236
40	836979	193.6	4638.3332360146
40	837145	193.7	4641.3975485253
40	837311	193.8	4644.467793485
40	837477	193.9	4647.5387672227
40	837643	194	4650.6066574113
40	837809	194.1	4653.6743775957
40	837975	194.2	4656.7404998181
40	838141	194.3	4659.8122332506
40	838307	194.4	4662.8818512012
40	838473	194.5	4665.9558261182
40	838639	194.6	4669.0298235584
40	838805	194.7	4672.1034487534
40	838971	194.8	4675.1676805676
40	839137	194.9	4678.2294674914
40	839303	195	4681.2924743252
40	839469	195.1	4684.354474621
40	839635	195.2	4687.426877069
40	839801	195.3	4690.4904931458
40	839967	195.4	4693.5588129823
40	840133	195.5	4696.6214909293
40	840299	195.6	4699.6875299662
40	840465	195.7	4702.7555925759
40	840631	195.8	4705.8255993407
40	840797	195.9	4708.8904571014
40	840963	196	4711.955958404
40	841129	196.1	4715.0259005244
40	841295	196.2	4718.0879233998
40	841461	196.3	4721.155799358
40	841627	196.4	4724.2174499837
40	841793	196.5	4727.2801767186
40	841959	196.6	4730.3475149096
40	842125	196.7	4733.4214793487
40	842291	196.8	4736.4925748799
40	842457	196.9	4739.556057085
40	842623	197	4742.6223316513
40	842789	197.1	4745.6863579132
40	842955	197.2	4748.7601767341
40	843121	197.3	4751.8220125215
40	843287	197.4	4754.8889773189
40	843396	197.5	4757.9562299341
40	843505	197.6	4761.0206739867
40	843614	197.7	4764.0906341801
40	843723	197.8	4767.1546904411
40	843832	197.9	4770.2193045227
40	843941	198	4773.2855138876
40	844050	198.1	4776.3588062682
40	844159	198.2	4779.4222521743
40	844268	198.3	4782.4849828665
40	844377	198.4	4785.5486090336
40	844486	198.5	4788.6110564074
40	844595	198.6	4791.6731067985
40	844704	198.7	4794.7392554269
40	844813	198.8	4797.8105766685
40	844922	198.9	4800.8723237476
40	845031	199	4803.9448906102
40	845140	199.1	4807.018033021
40	845204	199.2	4810.081352544
40	845268	199.3	4813.1493446903
40	845332	199.4	4816.22137215
40	845396	199.5	4819.2890664615
40	845460	199.6	4822.3623116087
40	845524	199.7	4825.4356680052
40	845588	199.8	4828.5048199912
40	845652	199.9	4831.5712491703
40	845716	200	4834.6423770048

