version 2
run Scenario3Patched-0-20180429-00:57:24-9508
attr configname Scenario3Patched
attr datetime 20180429-00:57:24
attr experiment Scenario3Patched
attr inifile omnetpp.ini
attr iterationvars ""
attr iterationvarsf ""
attr measurement ""
attr network HighwayScenario3
attr processid 9508
attr repetition 0
attr replication #0
attr resultdir results
attr runnumber 0
attr seedset 0
param *.attackerNode[*].applType "\"AttackerAppLayer_Sybil\""
param *.normal_carNode[*].applType "\"NormalAppLayer_Secure\""
param *.normal_carNode[*].appl.headerLength "80 bit"
param *.normal_carNode[*].appl.sendBeacons true
param *.normal_carNode[*].appl.dataOnSch false
param *.normal_carNode[*].appl.beaconInterval 0.1s
param *.node[*].applType "\"NormalAppLayer_Secure\""
param *.node[*].appl.headerLength "80 bit"
param *.node[*].appl.sendBeacons true
param *.node[*].appl.dataOnSch false
param *.node[*].appl.beaconInterval 0.1s
param **.debug false
param **.coreDebug false
param *.playgroundSizeX 5500m
param *.playgroundSizeY 500m
param *.playgroundSizeZ 50m
param *.annotations.draw false
param *.obstacles.debug false
param *.manager.updateInterval 0.1s
param *.manager.host "\"localhost\""
param *.manager.port 9999
param *.manager.autoShutdown true
param *.manager.launchConfig "xmldoc(\"highway.launchd.xml\")"
param *.connectionManager.sendDirect true
param *.connectionManager.maxInterfDist 2600m
param *.connectionManager.drawMaxIntfDist false
param *.**.nic.mac1609_4.useServiceChannel false
param *.**.nic.mac1609_4.txPower 20mW
param *.**.nic.mac1609_4.bitrate 6Mbps
param *.**.nic.phy80211p.sensitivity -89dBm
param *.**.nic.phy80211p.useThermalNoise true
param *.**.nic.phy80211p.thermalNoise -110dBm
param *.**.nic.phy80211p.decider "xmldoc(\"config.xml\")"
param *.**.nic.phy80211p.analogueModels "xmldoc(\"config.xml\")"
param *.**.nic.phy80211p.usePropagationDelay true
param *.**.nic.phy80211p.antenna "xmldoc(\"antenna.xml\", \"/root/Antenna[@id='monopole']\")"
param *.manager.moduleType "\"attacker=org.car2x.veins.nodes.Car normal_car=org.car2x.veins.nodes.Car *=org.car2x.veins.nodes.Car\""
param *.manager.moduleName "\"attacker=attackerNode normal_car=normal_carNode *=node\""
param *.node[*].veinsmobilityType.debug true
param *.node[*].veinsmobility.x 0
param *.node[*].veinsmobility.y 0
param *.node[*].veinsmobility.z 1.895
param *.attackerNode[*].veinsmobilityType.debug true
param *.attackerNode[*].veinsmobility.x 0
param *.attackerNode[*].veinsmobility.y 0
param *.attackerNode[*].veinsmobility.z 1.895
param *.normal_carNode[*].veinsmobilityType.debug true
param *.normal_carNode[*].veinsmobility.x 0
param *.normal_carNode[*].veinsmobility.y 0
param *.normal_carNode[*].veinsmobility.z 1.895

vector 0 HighwayScenario3.normal_carNode[0].veinsmobility posx ETV
vector 1 HighwayScenario3.normal_carNode[0].veinsmobility posy ETV
vector 2 HighwayScenario3.normal_carNode[0].veinsmobility speed ETV
vector 3 HighwayScenario3.normal_carNode[0].veinsmobility acceleration ETV
vector 4 HighwayScenario3.normal_carNode[0].veinsmobility co2emission ETV
vector 5 HighwayScenario3.normal_carNode[1].veinsmobility posx ETV
vector 6 HighwayScenario3.normal_carNode[1].veinsmobility posy ETV
vector 7 HighwayScenario3.normal_carNode[1].veinsmobility speed ETV
vector 8 HighwayScenario3.normal_carNode[1].veinsmobility acceleration ETV
vector 9 HighwayScenario3.normal_carNode[1].veinsmobility co2emission ETV
vector 10 HighwayScenario3.normal_carNode[2].veinsmobility posx ETV
vector 11 HighwayScenario3.normal_carNode[2].veinsmobility posy ETV
vector 12 HighwayScenario3.normal_carNode[2].veinsmobility speed ETV
vector 13 HighwayScenario3.normal_carNode[2].veinsmobility acceleration ETV
vector 14 HighwayScenario3.normal_carNode[2].veinsmobility co2emission ETV
vector 15 HighwayScenario3.normal_carNode[3].veinsmobility posx ETV
vector 16 HighwayScenario3.normal_carNode[3].veinsmobility posy ETV
vector 17 HighwayScenario3.normal_carNode[3].veinsmobility speed ETV
vector 18 HighwayScenario3.normal_carNode[3].veinsmobility acceleration ETV
vector 19 HighwayScenario3.normal_carNode[3].veinsmobility co2emission ETV
vector 20 HighwayScenario3.normal_carNode[4].veinsmobility posx ETV
vector 21 HighwayScenario3.normal_carNode[4].veinsmobility posy ETV
vector 22 HighwayScenario3.normal_carNode[4].veinsmobility speed ETV
vector 23 HighwayScenario3.normal_carNode[4].veinsmobility acceleration ETV
vector 24 HighwayScenario3.normal_carNode[4].veinsmobility co2emission ETV
vector 25 HighwayScenario3.normal_carNode[5].veinsmobility posx ETV
vector 26 HighwayScenario3.normal_carNode[5].veinsmobility posy ETV
vector 27 HighwayScenario3.normal_carNode[5].veinsmobility speed ETV
vector 28 HighwayScenario3.normal_carNode[5].veinsmobility acceleration ETV
vector 29 HighwayScenario3.normal_carNode[5].veinsmobility co2emission ETV
vector 30 HighwayScenario3.normal_carNode[6].veinsmobility posx ETV
vector 31 HighwayScenario3.normal_carNode[6].veinsmobility posy ETV
vector 32 HighwayScenario3.normal_carNode[6].veinsmobility speed ETV
vector 33 HighwayScenario3.normal_carNode[6].veinsmobility acceleration ETV
vector 34 HighwayScenario3.normal_carNode[6].veinsmobility co2emission ETV
vector 35 HighwayScenario3.normal_carNode[7].veinsmobility posx ETV
vector 36 HighwayScenario3.normal_carNode[7].veinsmobility posy ETV
vector 37 HighwayScenario3.normal_carNode[7].veinsmobility speed ETV
vector 38 HighwayScenario3.normal_carNode[7].veinsmobility acceleration ETV
vector 39 HighwayScenario3.normal_carNode[7].veinsmobility co2emission ETV
vector 40 HighwayScenario3.normal_carNode[8].veinsmobility posx ETV
vector 41 HighwayScenario3.normal_carNode[8].veinsmobility posy ETV
vector 42 HighwayScenario3.normal_carNode[8].veinsmobility speed ETV
vector 43 HighwayScenario3.normal_carNode[8].veinsmobility acceleration ETV
vector 44 HighwayScenario3.normal_carNode[8].veinsmobility co2emission ETV
vector 45 HighwayScenario3.normal_carNode[9].veinsmobility posx ETV
vector 46 HighwayScenario3.normal_carNode[9].veinsmobility posy ETV
vector 47 HighwayScenario3.normal_carNode[9].veinsmobility speed ETV
vector 48 HighwayScenario3.normal_carNode[9].veinsmobility acceleration ETV
vector 49 HighwayScenario3.normal_carNode[9].veinsmobility co2emission ETV
vector 50 HighwayScenario3.attackerNode[10].veinsmobility posx ETV
vector 51 HighwayScenario3.attackerNode[10].veinsmobility posy ETV
vector 52 HighwayScenario3.attackerNode[10].veinsmobility speed ETV
vector 53 HighwayScenario3.attackerNode[10].veinsmobility acceleration ETV
vector 54 HighwayScenario3.attackerNode[10].veinsmobility co2emission ETV
4	22	0.3	5.9379832321851
4	32	0.4	5.1302503875136
4	42	0.5	5.0559676456523
4	52	0.6	8.8639361180866
4	62	0.7	3.7641739649903
4	72	0.8	9.6006981639465
4	82	0.9	3.281392014441
4	92	1	10.741321888787
4	102	1.1	4.3391690891636
4	112	1.2	6.1579967247884
4	122	1.3	9.081246868495
4	132	1.4	5.8508071029643
4	142	1.5	7.839893655959
4	152	1.6	0.2916909232636
4	162	1.7	14.989629717041
4	172	1.8	0.973
4	182	1.9	13.494674804102
4	192	2	5.2625968849454
4	202	2.1	5.4284550025656
4	212	2.2	3.163577475049
4	222	2.3	6.1697950566513
4	253	2.4	9.8005990347715
4	284	2.5	7.2928153207273
4	315	2.6	1.8386920551275
4	346	2.7	11.516975344862
4	377	2.8	3.2021501255621
4	408	2.9	9.2710769109936
4	439	3	0.3446462240923
4	470	3.1	14.795711839269
4	501	3.2	-1.0951332577996
4	532	3.3	10.460160851216
4	563	3.4	3.0276381773332
4	594	3.5	9.2675990746385
4	625	3.6	4.7623138540963
4	656	3.7	5.9556395509543
4	687	3.8	7.8105006148103
4	718	3.9	6.8495143817716
4	749	4	4.1154409728156
4	780	4.1	13.113493281572
4	811	4.2	2.6245491382636
4	842	4.3	9.3567211985448
4	873	4.4	0.74252763016981
4	904	4.5	11.747394584658
4	968	4.6	7.2454037331735
4	1032	4.7	1.4441655487817
4	1096	4.8	10.463564671354
4	1160	4.9	-1.0114410574332
4	1224	5	11.459574248158
4	1288	5.1	6.5289354688911
4	1352	5.2	9.880045955059
4	1416	5.3	0.57113647210442
4	1480	5.4	11.498794261735
4	1544	5.5	6.8417305044377
4	1608	5.6	1.480442835206
4	1672	5.7	6.7760641783728
4	1736	5.8	5.7307144614972
4	1800	5.9	11.87672477813
4	1864	6	0.92518089523225
4	1928	6.1	6.2015371302307
4	1992	6.2	8.8460110089895
4	2056	6.3	8.1493745832828
4	2120	6.4	5.4409910186488
4	2184	6.5	3.1245440598536
4	2248	6.6	5.1309991441802
4	2312	6.7	10.601367402025
4	2421	6.8	9.2011814557275
4	2530	6.9	6.4225167600598
4	2639	7	2.5748752633605
4	2748	7.1	4.9928886015485
4	2857	7.2	12.224207159682
4	2966	7.3	5.5793842681803
4	3075	7.4	6.4262530613316
4	3184	7.5	3.3665123817365
4	3293	7.6	3.534286529585
4	3402	7.7	10.786927211786
4	3511	7.8	8.1727616115122
4	3620	7.9	-2.1774104830683
4	3729	8	9.0692244899369
4	3838	8.1	5.8824420363321
4	3947	8.2	11.880650300814
4	4056	8.3	8.0907387394708
4	4165	8.4	6.5747535848919
4	4274	8.5	3.6816999465695
4	4383	8.6	-0.71244516982142
4	4492	8.7	10.346806630772
4	4601	8.8	6.4302493278521
4	4710	8.9	2.4780370606449
4	4876	9	7.4664735146559
4	5042	9.1	7.1943530490583
4	5208	9.2	5.2079941609037
4	5374	9.3	5.5091414089341
4	5540	9.4	11.151678542292
4	5706	9.5	7.490283925126
4	5872	9.6	10.274287829213
4	6038	9.7	3.6452865574858
4	6204	9.8	4.9531073448021
4	6370	9.9	9.8665217705507
4	6536	10	1.4501526329203
4	6702	10.1	9.000831807652
4	6868	10.2	5.9220211601108
4	7034	10.3	7.5048983700292
4	7200	10.4	8.0560453304209
4	7366	10.5	2.6110575361122
4	7532	10.6	2.2925320067129
4	7698	10.7	13.607766210079
4	7864	10.8	-0.17978958493115
4	8030	10.9	14.365342159245
4	8196	11	2.0855298326813
4	8362	11.1	7.3029276720122
4	8597	11.2	2.290218206371
4	8832	11.3	10.766161369922
4	9067	11.4	8.0498424723159
4	9302	11.5	-0.74040935492935
4	9537	11.6	9.2374959734399
4	9772	11.7	12.024503529051
4	10007	11.8	4.1786612731609
4	10242	11.9	1.4285170950319
4	10477	12	11.933294491999
4	10712	12.1	2.729175331488
4	10947	12.2	5.2482208576881
4	11182	12.3	8.3699758162607
4	11417	12.4	5.0576871352394
4	11652	12.5	5.089810131606
4	11887	12.6	7.7905283454336
4	12122	12.7	7.9443082271861
4	12357	12.8	8.7336461511315
4	12592	12.9	2.1181807916281
4	12827	13	13.04931188311
4	13062	13.1	-2.6879294891013
4	13297	13.2	10.515441229084
4	13532	13.3	2.3125073361467
4	13840	13.4	10.584004977281
4	14148	13.5	7.4003033961932
4	14456	13.6	1.9407493799542
4	14764	13.7	13.345760626361
4	15072	13.8	-0.87569351226697
4	15380	13.9	11.373543553517
4	15688	14	9.1130554225203
4	15996	14.1	1.3481054256308
4	16304	14.2	5.4346720265481
4	16612	14.3	6.4609916326536
4	16920	14.4	11.420375864101
4	17228	14.5	-0.73831140338956
4	17536	14.6	6.3518777817046
4	17844	14.7	8.9333165683864
4	18152	14.8	10.883969931068
4	18460	14.9	6.8841138608818
4	18768	15	7.8965159775365
4	19076	15.1	-1.9988271015457
4	19384	15.2	4.7483715136378
4	19692	15.3	6.5756395701972
4	20000	15.4	12.155543293499
4	20308	15.5	9.1518264828291
4	20693	15.6	-0.15462293790554
4	21078	15.7	7.3952096738729
4	21463	15.8	4.4468145439698
4	21848	15.9	14.682849235287
4	22233	16	-0.048331943694405
4	22618	16.1	11.562522592971
4	23003	16.2	0.26050746062906
4	23388	16.3	8.3481341697752
4	23773	16.4	7.7053217029424
4	24158	16.5	5.7880264546257
4	24543	16.6	5.0881503381384
4	24928	16.7	7.5133087112299
4	25313	16.8	7.8703739973868
4	25698	16.9	4.842281869141
4	26083	17	4.5355354770935
4	26468	17.1	6.6358195332611
4	26853	17.2	11.122236600676
4	27238	17.3	4.1588297928364
4	27623	17.4	1.3189869865199
4	28008	17.5	7.7753508366579
4	28393	17.6	14.144530306568
4	28778	17.7	6.7171582724284
4	29244	17.8	6.5902725233073
4	29710	17.9	0.31262870418811
4	30176	18	10.269159110965
4	30642	18.1	2.1127028693772
4	31108	18.2	11.7366891919
4	31574	18.3	3.9040428388698
4	32040	18.4	5.2048237200312
4	32506	18.5	10.724891774636
4	32972	18.6	1.8114948071166
4	33438	18.7	4.1195330021753
4	33904	18.8	13.52351167946
4	34370	18.9	2.955136391306
4	34836	19	7.7632208579152
4	35302	19.1	5.0057652372449
4	35768	19.2	6.4625325798494
4	36234	19.3	5.1130618998371
4	36700	19.4	6.4092740497135
4	37166	19.5	7.9762999979543
4	37632	19.6	5.3391581413402
4	38098	19.7	3.8820250905045
4	38564	19.8	3.5909323658263
4	39030	19.9	14.127534837793
4	39581	20	8.3672246746738
4	40132	20.1	6.4049103590533
4	40683	20.2	-2.5824632169583
4	41234	20.3	11.677600918217
4	41785	20.4	3.8027169709397
4	42336	20.5	6.4280108543041
4	42887	20.6	9.2096743299637
4	43438	20.7	10.038323499301
4	43989	20.8	0.95281944214427
4	44540	20.9	1.9399678132117
4	45091	21	9.3254516411051
4	45642	21.1	3.2387334382754
4	46193	21.2	11.025557406534
4	46744	21.3	6.3348128894356
4	47295	21.4	4.9912596707028
4	47846	21.5	10.13868594911
4	48397	21.6	3.5044519103038
4	48948	21.7	6.1050057752244
4	49499	21.8	7.4991010096168
4	50042	21.9	4.3593311606633
4	50585	22	7.0643119644301
4	51128	22.1	11.013004303692
4	51951	22.2	3.1721743658661
4	52774	22.3	8.041653860457
4	53597	22.4	-0.22800816750417
4	54420	22.5	10.851676008997
4	55243	22.6	11.563037720813
4	56115	22.7	2.5956004178631
4	57014	22.8	1.2291663275222
4	57913	22.9	14.073090621257
4	58812	23	5.8667694775998
4	59711	23.1	3.952136862432
4	60610	23.2	8.5436280072058
4	61509	23.3	5.0810921188476
4	62408	23.4	2.0495849846634
4	63307	23.5	6.8581632956219
4	64206	23.6	8.1257570453047
4	65158	23.7	3.4576203713589
4	66057	23.8	13.600591283642
4	66956	23.9	5.2039880221845
4	67855	24	8.8907791041476
4	68754	24.1	-2.007287762756
4	69653	24.2	12.38707088242
4	70552	24.3	0.29405088678536
4	71451	24.4	9.6288982636333
4	72350	24.5	7.2520138293805
4	73249	24.6	9.1038922530783
4	74201	24.7	7.9707166614396
4	75108	24.8	-1.3531501195714
4	76015	24.9	11.163540795429
4	76922	25	6.4762944242267
4	77829	25.1	6.2732980561694
4	78736	25.2	2.3219418631344
4	79643	25.3	6.3281141633523
4	80550	25.4	6.9085501340383
4	81457	25.5	12.769946975356
4	82364	25.6	1.2296291002712
4	83324	25.7	12.278953492146
4	84231	25.8	1.2944328216002
4	85138	25.9	5.5226898980543
4	86045	26	6.4943656531256
4	86952	26.1	8.3037656146196
4	87859	26.2	3.4232238318728
4	88766	26.3	7.1753857955493
4	89673	26.4	5.1767460403842
4	90580	26.5	9.285971267646
4	91487	26.6	7.5894262837246
4	92447	26.7	2.7648836382452
4	93354	26.8	11.240473475584
4	94261	26.9	7.3495320195031
4	95168	27	0.63556064872485
4	96075	27.1	10.006384020302
4	96982	27.2	6.2080048452318
4	97889	27.3	8.8174247160403
4	98796	27.4	6.0936714466808
4	99703	27.5	3.8898790049681
4	100610	27.6	8.6841583974241
4	101570	27.7	-0.84209132220349
4	102477	27.8	9.6868537767806
4	103384	27.9	7.0169434613427
4	104291	28	9.2100181970969
4	105198	28.1	5.4878025669443
4	106105	28.2	-0.38299471551677
4	107012	28.3	9.3273596617912
4	107919	28.4	5.4705508818971
4	108826	28.5	12.718229336347
4	109733	28.6	3.1556691335081
4	110693	28.7	8.2396940411971
4	111600	28.8	6.2215090698998
4	112507	28.9	4.3325314574302
4	113414	29	10.502053543497
4	114313	29.1	-0.76563247100183
4	115212	29.2	6.2203976795989
4	116111	29.3	12.77602151217
4	117010	29.4	3.1405085457981
4	117909	29.5	2.1975585246955
4	118808	29.6	8.9981462848202
4	119760	29.7	11.154536563823
4	120659	29.8	1.9292766595071
4	121558	29.9	12.602317593157
4	122457	30	-2.3589294778492
4	123356	30.1	9.4055855545547
4	124255	30.2	9.2891950858509
4	125154	30.3	7.3183750799295
4	126053	30.4	4.0847088499128
4	126952	30.5	6.0870385300106
4	127851	30.6	11.355482804632
4	128803	30.7	5.6036234329079
4	129702	30.8	3.288506243789
4	130601	30.9	10.205793423591
4	131500	31	0.973
4	132399	31.1	6.4330462911697
4	133298	31.2	14.657309876829
4	134197	31.3	3.2278971088668
4	135096	31.4	4.6581056108456
4	135995	31.5	4.5844520819782
4	136894	31.6	14.027155885877
4	137846	31.7	7.1646497246056
4	138745	31.8	3.7910512493196
4	139644	31.9	5.0082053171353
4	140543	32	7.963681935598
4	141442	32.1	6.5077978762207
4	142341	32.2	-0.34863549134162
4	143240	32.3	6.3207368637285
4	144139	32.4	11.831246120989
4	145038	32.5	0.019409263438166
4	145937	32.6	9.0268689460075
4	146889	32.7	10.075100797982
4	147788	32.8	3.2377985979307
4	148687	32.9	6.4520312281625
4	149586	33	9.7379187032653
4	150485	33.1	1.5422142624981
4	151384	33.2	14.693285965136
4	152283	33.3	-1.4430875712029
4	153182	33.4	10.426708674722
4	154081	33.5	4.4868572112209
4	154980	33.6	5.7915172174227
4	155932	33.7	9.9580472052524
4	156831	33.8	6.1447374742065
4	157730	33.9	3.8074134397186
4	158629	34	2.7564321655297
4	159528	34.1	10.998107206731
4	160427	34.2	8.5941839241064
4	161326	34.3	3.7736096991964
4	162225	34.4	5.8751630417986
4	163124	34.5	9.0735952915988
4	164023	34.6	4.5716333274501
4	164975	34.7	2.6811695406999
4	165874	34.8	7.8455610628526
4	166773	34.9	7.0778971031301
4	167672	35	6.1609057265084
4	168571	35.1	3.0622394117551
4	169470	35.2	6.1926007940564
4	170369	35.3	16.062740852162
4	171268	35.4	1.5886061794731
4	172167	35.5	8.886116186408
4	173066	35.6	3.8726423024167
4	174018	35.7	8.6728862712152
4	174917	35.8	4.61820271415
4	175816	35.9	3.3285016508999
4	176715	36	6.296691836254
4	177614	36.1	4.6472375828608
4	178513	36.2	11.148078832824
4	179412	36.3	6.7646995554875
4	180311	36.4	4.1036058057049
4	181210	36.5	3.3166667868583
4	182109	36.6	8.4366834031183
4	183061	36.7	4.7440772311282
4	183960	36.8	13.839606206078
4	184851	36.9	-0.51223946176439
4	185742	37	14.32976624248
4	186633	37.1	3.2947304305628
4	187524	37.2	6.3531347675472
4	188415	37.3	8.0715696901425
4	189306	37.4	1.6919055140828
4	190197	37.5	12.877167381016
4	191088	37.6	4.3864216344245
4	192032	37.7	6.2476988272516
4	192923	37.8	2.3774138435128
4	193814	37.9	9.5584396987365
4	194705	38	4.9080849438836
4	195596	38.1	6.9872546874302
4	196487	38.2	2.8462965511278
4	197378	38.3	12.043994630025
4	198269	38.4	8.5734842149495
4	199160	38.5	0.973
4	200051	38.6	10.31188090583
4	200995	38.7	10.43072737325
4	201886	38.8	1.7451570123976
4	202777	38.9	3.6010833926872
4	203668	39	5.736501172899
4	204559	39.1	12.555664677504
4	205450	39.2	8.9142737648417
4	206333	39.3	7.091201742009
4	207216	39.4	2.8896200946733
4	208099	39.5	9.285358187901
4	208982	39.6	2.163478794243
4	209918	39.7	3.91444623203
4	210801	39.8	14.083951280842
4	211684	39.9	-0.81808414739207
4	212567	40	7.984669018616
4	213450	40.1	10.979482348745
4	214333	40.2	0.53749991215127
4	215216	40.3	8.5665251245479
4	216099	40.4	4.858280141238
4	216982	40.5	9.0009594805071
4	217865	40.6	9.3370000222058
4	218801	40.7	-1.5884744628959
4	219684	40.8	9.4535718823483
4	220567	40.9	5.9032762249322
4	221450	41	7.4109209355763
4	222333	41.1	11.14639633327
4	223216	41.2	-0.57824112841695
4	224099	41.3	6.3233467935398
4	225066	41.4	13.271447616665
4	226033	41.5	-1.4550241369151
4	227000	41.6	5.698294653276
4	228024	41.7	11.945196378423
4	228991	41.8	6.8749084639763
4	229958	41.9	3.0193456401205
4	230925	42	12.141605968822
4	231892	42.1	1.8682427827351
4	232859	42.2	9.6854044313075
4	233826	42.3	4.6250000646181
4	234793	42.4	8.435958896853
4	235760	42.5	8.4406162418518
4	236727	42.6	1.5527886430287
4	237751	42.7	8.1495884117873
4	238718	42.8	3.4168896847021
4	239685	42.9	11.638477693061
4	240652	43	3.4037348651475
4	241619	43.1	5.3994815814799
4	242586	43.2	9.6504042281875
4	243553	43.3	-1.5294668767184
4	244520	43.4	8.2062726416711
4	245487	43.5	10.256322774004
4	246454	43.6	2.4553547480991
4	247478	43.7	6.2459277846483
4	248445	43.8	5.0935659113506
4	249412	43.9	9.2030889951284
4	250379	44	7.7029800971281
4	251346	44.1	2.0375602060945
4	252313	44.2	15.791496761307
4	253280	44.3	3.9698155527462
4	254247	44.4	7.9453359771893
4	255214	44.5	-2.018484291017
4	256181	44.6	13.939741312392
4	257205	44.7	4.4523771186494
4	258172	44.8	9.1332405528145
4	259139	44.9	-0.39220650506825
4	260106	45	13.521817564261
4	261073	45.1	2.5689222321665
4	262040	45.2	7.4791425734629
4	263007	45.3	0.40609268180116
4	263974	45.4	15.125820873021
4	264941	45.5	6.2100024753667
4	265908	45.6	6.3133098270991
4	266932	45.7	0.21551131262055
4	267899	45.8	6.488524478269
4	268866	45.9	10.352326851262
4	269833	46	3.735055637491
4	270800	46.1	4.6311828465134
4	271767	46.2	5.421503651241
4	272734	46.3	7.2572916829593
4	273701	46.4	7.54524938474
4	274668	46.5	11.444432213709
4	275635	46.6	-1.7014348678274
4	276659	46.7	14.622215295794
4	277626	46.8	6.592540243216
4	278593	46.9	-0.58722681016556
4	279560	47	13.907383359779
4	280527	47.1	0.973
4	281494	47.2	13.404590173966
4	282461	47.3	3.6303748968242
4	283428	47.4	5.4322084409751
4	284395	47.5	6.5557355305698
4	285362	47.6	3.4843255228191
4	286386	47.7	11.618760131107
4	287353	47.8	5.2149053377222
4	288320	47.9	11.515639636713
4	289287	48	3.3486283588999
4	290254	48.1	-0.28914160972471
4	291221	48.2	10.452758293502
4	292188	48.3	8.2157625698433
4	293155	48.4	5.3059301595251
4	294122	48.5	9.1040860657734
4	295089	48.6	-0.95054390709862
4	296113	48.7	7.6829676002025
4	297080	48.8	14.668552709812
4	298047	48.9	3.5259819216662
4	299014	49	8.198922103057
4	299981	49.1	-2.0715614473938
4	300948	49.2	14.071956634604
4	301915	49.3	6.0279470117386
4	302882	49.4	6.9854539557997
4	303849	49.5	4.2157811432193
4	304816	49.6	3.9916718376361
4	305840	49.7	9.7075649846175
4	306807	49.8	9.1217735380865
4	307774	49.9	6.0033418491585
4	308741	50	5.9450279596219
4	309708	50.1	2.3707869603682
4	310675	50.2	5.006994476947
4	311642	50.3	8.9184606385427
4	312609	50.4	8.1652339282607
4	313576	50.5	0.92758142771687
4	314543	50.6	4.6595628895601
4	315567	50.7	16.09890259607
4	316534	50.8	4.3748670470536
4	317501	50.9	2.0709544838106
4	318468	51	9.5821571367402
4	319435	51.1	4.9270249545715
4	320402	51.2	5.2145217989996
4	321369	51.3	5.7264280829077
4	322336	51.4	10.741190097142
4	323303	51.5	5.9507083303108
4	324270	51.6	7.2406587493407
4	325294	51.7	-1.0426140728382
4	326261	51.8	6.1763627783401
4	327228	51.9	6.5138781756787
4	328195	52	8.9099735390309
4	329162	52.1	5.6040071529511
4	330129	52.2	13.385334645322
4	331096	52.3	-0.24766677025099
4	332063	52.4	5.5516863529085
4	333030	52.5	12.758850318221
4	333997	52.6	-1.5502523915765
4	335021	52.7	13.134130039285
4	335988	52.8	-0.46726898129798
4	336955	52.9	6.1911235610972
4	337922	53	14.458529909677
4	338889	53.1	-0.80803973774074
4	339856	53.2	8.3414622159601
4	340823	53.3	8.4567160313349
4	341790	53.4	2.6139980614443
4	342757	53.5	6.3060532975701
4	343724	53.6	13.010860636669
4	344748	53.7	-0.34910226269185
4	345715	53.8	10.885837418383
4	346682	53.9	10.366432060712
4	347649	54	0.88032732716972
4	348616	54.1	4.6492601810615
4	349583	54.2	4.522948268063
4	350550	54.3	12.526337967148
4	351517	54.4	10.010068586232
4	352484	54.5	4.1100209016944
4	353451	54.6	3.1858197910297
4	354475	54.7	6.9203472782895
4	355442	54.8	1.4332843952643
4	356409	54.9	6.5349801231281
4	357376	55	16.132407764657
4	358343	55.1	4.0215422537096
4	359310	55.2	4.8536757031854
4	360277	55.3	5.735628039868
4	361244	55.4	1.5085520879582
4	362211	55.5	15.050630835117
4	363178	55.6	-2.3362648538276
4	364202	55.7	15.204931482146
4	365169	55.8	4.6760977594827
4	366136	55.9	4.8265569180193
4	367103	56	8.7204182309153
4	368070	56.1	3.5961273945611
4	369037	56.2	5.190484093864
4	370004	56.3	7.0739825373235
4	370971	56.4	5.5287572368494
4	371938	56.5	8.6324614686508
4	372905	56.6	8.4265475501328
4	373929	56.7	-1.5529991659736
4	374896	56.8	10.165484991768
4	375863	56.9	6.9571314171657
4	376830	57	7.0260953344589
4	377797	57.1	1.5722713659597
4	378764	57.2	9.3867544046089
4	379731	57.3	8.2534953298075
4	380698	57.4	4.1056782067151
4	381665	57.5	12.288412760244
4	382624	57.6	2.5997607519423
4	383640	57.7	11.248969651063
4	384599	57.8	3.8437773720667
4	385558	57.9	4.4454459827807
4	386517	58	0.90570075851113
4	387476	58.1	8.2377118620829
4	388435	58.2	12.97187299238
4	389394	58.3	7.1392609835547
4	390345	58.4	6.3190670929726
4	391296	58.5	-0.45588600178079
4	392247	58.6	5.2251152371139
4	393255	58.7	6.7921666144181
4	394206	58.8	12.419155562658
4	395157	58.9	-0.33357302078598
4	396108	59	9.1062674644898
4	397059	59.1	7.5142077963315
4	398010	59.2	2.4519599780703
4	398961	59.3	12.783728861289
4	399912	59.4	4.8357241813065
4	400863	59.5	1.50890854893
4	401814	59.6	11.694192188104
4	402822	59.7	6.3592499823637
4	403773	59.8	0.90280100302794
4	404724	59.9	9.2169613154645
4	405619	60	11.162480218206
4	406514	60.1	2.6460351443246
4	407409	60.2	10.139122584972
4	408304	60.3	0.98772338158474
4	409199	60.4	5.0320008631493
4	410094	60.5	14.592587364544
4	410989	60.6	1.8035423039673
4	411941	60.7	3.9485014641798
4	412836	60.8	12.3509937393
4	413731	60.9	3.4338019978145
4	414626	61	1.6324226662218
4	415521	61.1	6.6503734873855
4	416416	61.2	9.529527955676
4	417311	61.3	11.598632232667
4	418206	61.4	5.3253631477186
4	419101	61.5	5.8384646079614
4	419996	61.6	6.1984657476068
4	420948	61.7	1.0801105259081
4	421843	61.8	9.2276378208711
4	422738	61.9	9.6177657632385
4	423633	62	8.2625329712376
4	424528	62.1	2.4445603248329
4	425423	62.2	0.67849915980554
4	426318	62.3	9.0447256106654
4	427213	62.4	7.9542565887898
4	428108	62.5	2.990096304094
4	429003	62.6	7.5213725683958
4	429955	62.7	13.85810617112
4	430850	62.8	2.1753864600631
4	431745	62.9	3.1679988037077
4	432640	63	4.3428881509858
4	433535	63.1	6.3113680531338
4	434430	63.2	13.240227478627
4	435325	63.3	7.5389748147859
4	436220	63.4	5.0390054599602
4	437115	63.5	4.1266356561155
4	438010	63.6	11.391597177567
4	438962	63.7	-0.9886979707719
4	439857	63.8	7.3286951452805
4	440752	63.9	8.8238392129109
4	441647	64	1.7343293812982
4	442542	64.1	12.74055840955
4	443437	64.2	3.0734507283241
4	444332	64.3	11.606851718489
4	445227	64.4	5.9748378673114
4	446122	64.5	2.10867078129
4	447017	64.6	7.1983177039034
4	447969	64.7	5.627246108945
4	448864	64.8	2.3643708268302
4	449759	64.9	13.4302326626
4	450654	65	-0.047857866897938
4	451549	65.1	14.672373758428
4	452444	65.2	3.6516639927102
4	453339	65.3	3.8992397401562
4	454234	65.4	5.5553299549436
4	455129	65.5	7.8219613105661
4	456016	65.6	9.1165013769403
4	456960	65.7	6.3450838421016
4	457847	65.8	7.687180588673
4	458734	65.9	6.2235033564951
4	459621	66	3.146557044306
4	460508	66.1	5.2689955555303
4	461395	66.2	11.796447515129
4	462282	66.3	3.1067491506662
4	463169	66.4	7.4735169459978
4	464056	66.5	-0.70879532829733
4	464943	66.6	11.410151886729
4	465887	66.7	1.5981591743839
4	466774	66.8	14.991235273938
4	467661	66.9	4.8573578348782
4	468548	67	3.6782649219884
4	469435	67.1	4.0111741723889
4	470322	67.2	5.7930799753737
4	471209	67.3	9.8584298836162
4	472096	67.4	1.4879876765646
4	472983	67.5	9.883214114538
4	473870	67.6	5.8015188861301
4	474814	67.7	6.657766110505
4	475701	67.8	11.403219266146
4	476588	67.9	6.2525424533988
4	477475	68	4.9793186976885
4	478362	68.1	6.3500984652075
4	479249	68.2	0.73250101046314
4	480136	68.3	14.185624657506
4	481023	68.4	-1.051512088358
4	481910	68.5	5.948980412069
4	482797	68.6	5.7129457679466
4	483741	68.7	12.28371709194
4	484628	68.8	2.097550760659
4	485515	68.9	8.8853297232442
4	486402	69	9.3811333486828
4	487289	69.1	0.19041001795611
4	488176	69.2	9.3120016654556
4	489063	69.3	10.220614997023
4	489950	69.4	1.9879480382533
4	490837	69.5	9.8351998342443
4	491724	69.6	5.3820445489918
4	492668	69.7	10.662549610541
4	493555	69.8	0.973
4	494442	69.9	11.791576499936
4	495329	70	0.67883125810286
4	496216	70.1	14.230174828189
4	497103	70.2	1.1562319838433
4	497990	70.3	3.5306643243352
4	498877	70.4	8.5705526727885
4	499764	70.5	4.1548882235108
4	500651	70.6	15.430234030029
4	501595	70.7	1.0669457691611
4	502482	70.8	8.1058931546166
4	503369	70.9	7.1323916778662
4	504256	71	1.1521883268255
4	505143	71.1	12.618294676349
4	506030	71.2	2.2022585167284
4	506917	71.3	5.7033331186309
4	507804	71.4	7.0957695548134
4	508691	71.5	13.490408437799
4	509578	71.6	5.4965671170153
4	510522	71.7	2.3299456828376
4	511409	71.8	3.0307188863442
4	512296	71.9	4.8976516528049
4	513183	72	16.336549301082
4	514070	72.1	4.6232541149323
4	514957	72.2	2.1634774619038
4	515844	72.3	6.6444180917075
4	516731	72.4	2.417664791021
4	517618	72.5	12.306563209746
4	518505	72.6	5.0088944970941
4	519449	72.7	6.043180222192
4	520336	72.8	7.4491458339278
4	521223	72.9	2.8689282719374
4	522110	73	11.563260902899
4	522997	73.1	4.7782300147509
4	523884	73.2	8.9460607896873
4	524771	73.3	-0.99530935943495
4	525658	73.4	8.8904859872407
4	526545	73.5	3.4075615161696
4	527432	73.6	12.519988906773
4	528376	73.7	2.1274226949158
4	529263	73.8	9.5149215327353
4	530150	73.9	3.4481178070302
4	531037	74	4.2968379541943
4	531924	74.1	12.052724734314
4	532811	74.2	0.99686927767058
4	533698	74.3	6.4644496591959
4	534585	74.4	12.251841014542
4	535472	74.5	1.9919063606747
4	536359	74.6	6.1780837657137
4	537303	74.7	14.26154373854
4	538190	74.8	0.45319311349784
4	539077	74.9	3.3745584361135
4	539964	75	8.3078725389635
4	540851	75.1	9.5277922772014
4	541738	75.2	6.7119002420944
4	542625	75.3	5.6478433434662
4	543512	75.4	1.5894999017754
4	544399	75.5	13.574979250985
4	545286	75.6	6.1599096591988
4	546230	75.7	6.1259803259597
4	547117	75.8	4.7052017262344
4	548004	75.9	4.4998501230548
4	548891	76	3.2031271840359
4	549778	76.1	12.940261544975
4	550665	76.2	4.7763431829341
4	551552	76.3	10.628306815169
4	552439	76.4	6.1489010776771
4	553326	76.5	4.6947323581672
4	554213	76.6	2.9800051679287
4	555157	76.7	7.5359980007821
4	556044	76.8	4.9620858065069
4	556931	76.9	10.515053783924
4	557818	77	6.4773979749667
4	558705	77.1	7.3284969873925
4	559592	77.2	-2.1270666982027
4	560479	77.3	7.0704052262107
4	561366	77.4	10.312876433133
4	562253	77.5	2.8356737254796
4	563140	77.6	11.984566420031
4	564084	77.7	5.1949952237433
4	564971	77.8	2.52791541623
4	565858	77.9	6.3998582706522
4	566745	78	12.51093415222
4	567632	78.1	7.1198075158028
4	568519	78.2	3.0926128230118
4	569406	78.3	1.1244412128385
4	570293	78.4	11.258311040966
4	571180	78.5	2.9717260510275
4	572067	78.6	9.7625543089367
4	573011	78.7	7.2049229313281
4	573898	78.8	7.1478410349853
4	574785	78.9	8.2970919892591
4	575672	79	-1.3925829715375
4	576559	79.1	15.644228462163
4	577446	79.2	2.981370207739
4	578333	79.3	8.4964616392019
4	579220	79.4	6.7705194813844
4	580107	79.5	0.973
4	580994	79.6	8.2362179633028
4	581938	79.7	9.3295090039558
4	582825	79.8	9.6522515835857
4	583712	79.9	-0.67120422139782
4	584599	80	12.92982131732
4	585486	80.1	0.84625185699054
4	586373	80.2	13.739025045069
4	587260	80.3	3.9045016173788
4	588147	80.4	3.503086242987
4	589034	80.5	5.9066309434657
4	589921	80.6	5.5035697892618
4	590865	80.7	11.226724991598
4	591752	80.8	8.8223646114693
4	592639	80.9	5.2666972033571
4	593526	81	1.3909320570572
4	594413	81.1	7.2717956157458
4	595300	81.2	9.0922622381316
4	596187	81.3	0.37940065681418
4	597074	81.4	13.319823918147
4	597961	81.5	0.73322571314648
4	598848	81.6	7.5239571492256
4	599792	81.7	8.9505604581627
4	600679	81.8	6.2016040086713
4	601566	81.9	10.047167932727
4	602453	82	-1.3437596622583
4	603340	82.1	13.357085157875
4	604227	82.2	4.2114668162225
4	605114	82.3	3.8426534551069
4	606001	82.4	3.7552058645325
4	606888	82.5	13.664982246596
4	607775	82.6	1.0436475938961
4	608719	82.7	4.7606505112047
4	609606	82.8	9.4517119733732
4	610493	82.9	4.0176262302017
4	611380	83	13.056520603973
4	612259	83.1	4.3483979366701
4	613138	83.2	8.3832345626218
4	614017	83.3	6.3287121128259
4	614896	83.4	-1.9388521651509
4	615775	83.5	14.875580373784
4	616654	83.6	-0.97584599028054
4	617590	83.7	14.389130787551
4	618469	83.8	-1.1002215600943
4	619348	83.9	11.52839073833
4	620227	84	9.2612875028051
4	621106	84.1	4.4406703296562
4	621985	84.2	6.0281017937827
4	622864	84.3	1.9263922854473
4	623743	84.4	4.1809716566879
4	624622	84.5	13.375523443403
4	625501	84.6	2.6346409515483
4	626437	84.7	10.826469306302
4	627316	84.8	2.0788434824169
4	628195	84.9	3.1061169603665
4	629074	85	12.454343423928
4	629953	85.1	5.3236010496067
4	630832	85.2	1.3837383542061
4	631711	85.3	15.186353125749
4	632582	85.4	4.095867444914
4	633453	85.5	2.427251482234
4	634324	85.6	5.129622732093
4	635252	85.7	13.276631899667
4	636123	85.8	1.0764496402918
4	636994	85.9	4.8262709578548
4	637865	86	11.340559092284
4	638736	86.1	5.392483188789
4	639607	86.2	3.4925128361436
4	640478	86.3	4.5410282179593
4	641349	86.4	12.861118482851
4	642220	86.5	-0.094552012236494
4	643091	86.6	10.429964464052
4	644019	86.7	4.1683865244172
4	644890	86.8	10.746008311523
4	645761	86.9	6.9981183873333
4	646632	87	5.4077788155156
4	647503	87.1	-0.46000591839993
4	648374	87.2	10.785619074056
4	649245	87.3	9.1887475578614
4	650116	87.4	4.4240209072401
4	650987	87.5	6.6226221955844
4	651858	87.6	8.6493711189724
4	652786	87.7	6.8813453858567
4	653657	87.8	4.7348816363205
4	654528	87.9	1.9313489822082
4	655399	88	14.240118851802
4	656270	88.1	5.095064324168
4	657141	88.2	2.7666059157966
4	658012	88.3	5.6823248712151
4	658883	88.4	4.2661279633837
4	659754	88.5	7.6814602261429
4	660625	88.6	6.0608400952348
4	661553	88.7	3.8930377808069
4	662424	88.8	15.282237589507
4	663295	88.9	-1.9056277999038
4	664166	89	10.885163072847
4	665037	89.1	9.8800578648321
4	665908	89.2	-1.5049968354731
4	666779	89.3	7.1398636482584
4	667650	89.4	14.241465441038
4	668521	89.5	3.3089212226152
4	669392	89.6	0.98708008581097
4	670320	89.7	13.708063122505
4	671191	89.8	5.8282524139382
4	672062	89.9	7.0933137651912
4	672933	90	7.530592874622
4	673804	90.1	-2.3794812444556
4	674675	90.2	10.483675029903
4	675546	90.3	6.9688146421678
4	676417	90.4	5.3440975622312
4	677288	90.5	7.4698646637536
4	678159	90.6	8.0371307757679
4	679087	90.7	8.0504932264564
4	679958	90.8	2.8212799638885
4	680829	90.9	7.6328749555891
4	681700	91	5.7912945775004
4	682571	91.1	5.1670506501726
4	683442	91.2	1.8540474966815
4	684313	91.3	10.468330272671
4	685184	91.4	8.6824911297998
4	686055	91.5	9.3764784949629
4	686926	91.6	-1.2832031013072
4	687854	91.7	5.3621449067594
4	688725	91.8	5.6693770548442
4	689596	91.9	9.3226367919757
4	690467	92	12.894838811504
4	691338	92.1	5.4948736897678
4	692209	92.2	4.6834512966089
4	693080	92.3	2.39498700687
4	693951	92.4	3.9077421112465
4	694822	92.5	7.9620787300328
4	695693	92.6	12.157478376386
4	696621	92.7	1.7205599943733
4	697484	92.8	12.544931616731
4	698347	92.9	1.4582736936177
4	699210	93	4.2213650013011
4	700073	93.1	8.8849966806663
4	700936	93.2	10.867914145332
4	701799	93.3	0.973
4	702662	93.4	15.236756903589
4	703525	93.5	5.2024125744549
4	704388	93.6	6.3014204741811
4	705308	93.7	4.8961921955786
4	706171	93.8	4.4551798909848
4	707034	93.9	4.9147038621687
4	707897	94	5.76781640841
4	708760	94.1	8.415006315223
4	709623	94.2	6.6606838453856
4	710486	94.3	9.8712211297234
4	711349	94.4	-0.8401471609948
4	712212	94.5	9.250548438822
4	713075	94.6	8.4930596364123
4	713995	94.7	9.8794281150046
4	714858	94.8	3.8796233268101
4	715721	94.9	9.6071583774033
4	716584	95	0.30637883746524
4	717447	95.1	8.5787692905044
4	718310	95.2	5.8956879543002
4	719173	95.3	1.446036078488
4	720036	95.4	9.524698435076
4	720899	95.5	9.3734038271444
4	721762	95.6	6.5376065157839
4	722682	95.7	7.6955997742311
4	723545	95.8	1.3865289642223
4	724408	95.9	8.336469356117
4	725271	96	8.2545904207971
4	726134	96.1	0.91312988974648
4	726997	96.2	11.481604205581
4	727860	96.3	8.7615811910534
4	728723	96.4	5.225064919238
4	729586	96.5	3.1856627038225
4	730449	96.6	11.585013862039
4	731369	96.7	5.7507087291384
4	732232	96.8	2.7965368339898
4	733095	96.9	3.7985454307865
4	733958	97	6.3370356228202
4	734821	97.1	5.0537771747301
4	735684	97.2	11.220207400356
4	736547	97.3	4.8234597378984
4	737410	97.4	11.760494096152
4	738273	97.5	-0.63932685778319
4	739136	97.6	8.5488234045513
4	740056	97.7	8.546558998588
4	740919	97.8	9.0368419309992
4	741782	97.9	1.2479342451714
4	742645	98	11.198872136827
4	743508	98.1	6.3287047477573
4	744371	98.2	0.973
4	745234	98.3	11.260246864942
4	746097	98.4	9.2710479547909
4	746960	98.5	1.5761194613398
4	747823	98.6	5.7006363446466
4	748743	98.7	4.6166760676236
4	749606	98.8	11.754667864291
4	750469	98.9	7.6997138380114
4	751332	99	8.8616569492252
4	752195	99.1	0.72584525205234
4	753058	99.2	8.4392945863931
4	753921	99.3	4.3065646393431
4	754784	99.4	6.2186680416078
4	755647	99.5	9.0193775347388
4	756510	99.6	8.0540988014834
4	757430	99.7	0.39182871485812
4	758293	99.8	6.4474730986741
4	759156	99.9	12.053511594403
4	760019	100	-1.3815668573652
4	760882	100.1	15.813660555066
4	761745	100.2	0.23770691693165
4	762608	100.3	10.371385830079
4	763471	100.4	4.3187771779366
4	764334	100.5	3.5426435709866
4	765197	100.6	8.8644630862961
4	766117	100.7	10.445325109012
4	766980	100.8	3.8619034006703
4	767843	100.9	4.8623297827314
4	768706	101	5.486735170433
4	769569	101.1	2.6098076607405
4	770432	101.2	15.586781153319
4	771295	101.3	0.085567871279425
4	772158	101.4	4.5935873924756
4	773021	101.5	6.9884441481191
4	773884	101.6	12.027783308842
4	774804	101.7	4.423693815735
4	775667	101.8	4.0347679605817
4	776530	101.9	13.153633644938
4	777393	102	4.4191043721604
4	778256	102.1	6.8498393892562
4	779119	102.2	6.9100141965271
4	779982	102.3	7.5967995031494
4	780845	102.4	1.4625877894195
4	781708	102.5	3.2174759597559
4	782571	102.6	7.4018720683956
4	783491	102.7	13.112420910136
4	784354	102.8	6.0915653028918
4	785217	102.9	0.84422630562433
4	786080	103	4.9493661229915
4	786943	103.1	9.6135465758444
4	787806	103.2	1.593585395299
4	788669	103.3	6.0614890961917
4	789532	103.4	10.518197634549
4	790395	103.5	8.4399632499719
4	791258	103.6	1.9273443490593
4	792178	103.7	8.2025148323622
4	793041	103.8	6.8955665432142
4	793904	103.9	10.548700045636
4	794767	104	5.4684014984989
4	795630	104.1	5.7968369898079
4	796493	104.2	6.800591762501
4	797356	104.3	7.6468691142472
4	798211	104.4	0.29318644229278
4	799066	104.5	9.8777225292033
4	799921	104.6	1.3203716409178
4	800833	104.7	13.834623507939
4	801688	104.8	2.4968527683058
4	802543	104.9	3.4219047276228
4	803398	105	11.47505020417
4	804253	105.1	7.1036559108794
4	805108	105.2	1.7693141084467
4	805963	105.3	13.150047430493
4	806818	105.4	-1.4339517518453
4	807673	105.5	6.5687240077574
4	808528	105.6	9.8071960273747
4	809440	105.7	4.0798706473663
4	810295	105.8	9.1771698899218
4	811150	105.9	5.493962126787
4	812005	106	7.4085507201845
4	812860	106.1	4.3859647749791
4	813715	106.2	8.6369202157161
4	814570	106.3	5.5733467410283
4	815425	106.4	2.0189767689108
4	816280	106.5	5.8054964800313
4	817135	106.6	7.7363892310274
4	818047	106.7	12.796332765546
4	818902	106.8	0.37315914890556
4	819757	106.9	8.1483599230807
4	820612	107	10.362938441764
4	821467	107.1	1.6383853839485
4	822322	107.2	4.9262363620088
4	823177	107.3	9.6756857394433
4	824032	107.4	5.1886712093627
4	824887	107.5	8.6706902030758
4	825742	107.6	2.7582126339371
4	826654	107.7	6.9617173736558
4	827509	107.8	10.5627415482
4	828364	107.9	7.3281921944256
4	829219	108	1.339755171628
4	830074	108.1	12.973220943968
4	830929	108.2	6.6578304752671
4	831784	108.3	0.66956279117267
4	832639	108.4	12.618684175112
4	833494	108.5	2.006675107298
4	834349	108.6	1.8066364267173
4	835261	108.7	13.554377801096
4	836116	108.8	1.5297265785176
4	836971	108.9	11.770003207218
4	837826	109	4.7119975678298
4	838681	109.1	4.7171029551696
4	839536	109.2	2.2970712557261
4	840391	109.3	13.807379588443
4	841246	109.4	4.9030225560459
4	842101	109.5	4.2643382192763
4	842956	109.6	8.9141158503809
4	843868	109.7	5.3988276456158
4	844723	109.8	0.1360615726704
4	845578	109.9	14.826430802507
4	846433	110	-1.5314530404363
4	847288	110.1	5.9414791752494
4	848143	110.2	8.7553979806408
4	848998	110.3	9.6576156212292
4	849853	110.4	6.521247718809
4	850708	110.5	1.3319058784243
4	851563	110.6	12.470087690095
4	852475	110.7	6.6266147093764
4	853330	110.8	1.9034115684892
4	854185	110.9	4.4811325797307
4	855040	111	8.7105665183228
4	855895	111.1	3.4068658477827
4	856750	111.2	7.0853305260268
4	857605	111.3	8.2604786469543
4	858460	111.4	12.904759047731
4	859315	111.5	1.798164216608
4	860170	111.6	1.8368694626934
4	861082	111.7	9.5665762430317
4	861937	111.8	11.708355939419
4	862792	111.9	2.7034844784845
4	863647	112	3.9912598546339
4	864502	112.1	4.3933446730101
4	865357	112.2	7.3526027115022
4	866212	112.3	14.630109285008
4	867067	112.4	1.9600004616194
4	867922	112.5	6.6291912456184
4	868777	112.6	3.9852175636017
4	869689	112.7	12.922519851443
4	870544	112.8	0.11284879257216
4	871399	112.9	9.6327757340442
4	872254	113	6.1134354670709
4	873109	113.1	0.79860387980704
4	873964	113.2	14.036374595665
4	874819	113.3	4.1204973423424
4	875618	113.4	2.3710373712888
4	876417	113.5	13.233275933566
4	877216	113.6	0.59518655304134
4	878072	113.7	9.8635766687639
4	878871	113.8	4.9980416252583
4	879670	113.9	3.4676388858127
4	880469	114	5.6785273172264
4	881268	114.1	14.34422974831
4	882067	114.2	-1.2401092914968
4	882866	114.3	5.1452379917713
4	883665	114.4	11.210895744028
4	884464	114.5	1.3597896050225
4	885263	114.6	8.9898222229468
4	886119	114.7	13.441208696505
4	886918	114.8	3.8448771374666
4	887717	114.9	8.4754301682525
4	888516	115	-0.74319335618523
4	889315	115.1	7.7833779936155
4	890114	115.2	8.4297526900432
4	890913	115.3	4.510609307389
4	891712	115.4	8.5893580940178
4	892511	115.5	1.2222904490211
4	893310	115.6	14.987167509523
4	894166	115.7	0.973
4	894965	115.8	10.38690951949
4	895764	115.9	3.3000961610433
4	896563	116	14.39093253484
4	897362	116.1	6.7052367883334
4	898161	116.2	1.9623167044181
4	898960	116.3	1.763798466784
4	899759	116.4	7.1469941936293
4	900558	116.5	7.0104152660543
4	901357	116.6	13.17865661845
4	902213	116.7	-0.1341779468398
4	903012	116.8	9.0892208328151
4	903811	116.9	7.4676848273417
4	904610	117	6.3702408407317
4	905409	117.1	6.7552710159948
4	906208	117.2	5.1078557223359
4	907007	117.3	1.5629013828659
4	907806	117.4	12.78734139973
4	908605	117.5	10.093887910063
4	909404	117.6	5.3383536933646
4	910260	117.7	-2.1527280304426
4	911059	117.8	14.177196522481
4	911858	117.9	6.9230081512945
4	912657	118	4.0721236159999
4	913456	118.1	6.5192089846424
4	914255	118.2	3.9812827461831
4	915054	118.3	11.769953431376
4	915853	118.4	4.7732174577361
4	916652	118.5	-0.77245751301141
4	917451	118.6	6.9503480743006
4	918307	118.7	12.357006210507
4	919106	118.8	-0.77193500977552
4	919905	118.9	13.460864225904
4	920704	119	6.9972743653247
4	921503	119.1	3.9091628591672
4	922302	119.2	11.317105359662
4	923101	119.3	1.0628733949535
4	923900	119.4	8.0806332319415
4	924699	119.5	4.5857715606099
4	925498	119.6	11.43543395482
4	926354	119.7	3.9256891164171
4	927153	119.8	8.1788430695007
4	927952	119.9	-2.1151653609958
4	928751	120	11.160508085952
4	929550	120.1	10.602471874407
4	930349	120.2	0.037279551014407
4	931148	120.3	8.5776351235385
4	931947	120.4	3.3857623366802
4	932746	120.5	6.194733975142
4	933545	120.6	14.530696035513
4	934401	120.7	-2.4807190161395
4	935200	120.8	11.598613412622
4	935999	120.9	8.6773889431561
4	936798	121	4.4142266448457
4	937597	121.1	2.2846721766571
4	938396	121.2	7.0069442139581
4	939195	121.3	7.8089604997753
4	939994	121.4	8.7436339753727
4	940793	121.5	5.2527054179118
4	941592	121.6	4.854151226789
4	942448	121.7	8.407788487128
4	943247	121.8	7.5437159894176
4	944046	121.9	3.7043132988042
4	944845	122	9.7824362382129
4	945644	122.1	1.2535574159476
4	946443	122.2	11.462759729665
4	947242	122.3	-0.90907358075874
4	948041	122.4	15.525447139743
4	948840	122.5	4.3954757868557
4	949639	122.6	3.3236450478543
4	950495	122.7	7.6598216759728
4	951294	122.8	9.0873107774076
4	952093	122.9	2.3005874694157
4	952892	123	10.4630330086
4	953691	123.1	-1.3606875718871
4	954490	123.2	15.010362151854
4	955289	123.3	-0.73649561543685
4	956088	123.4	5.9516577719571
4	956887	123.5	11.094169817859
4	957686	123.6	0.53830480067249
4	958542	123.7	14.116779499613
4	959341	123.8	1.6017391805027
4	960140	123.9	8.1505886216844
4	960939	124	6.8368362971221
4	961738	124.1	7.2103928032293
4	962537	124.2	7.6227866846736
4	963336	124.3	1.135798568675
4	964135	124.4	10.980846630521
4	964934	124.5	5.1133305714828
4	965733	124.6	4.0183342283136
4	966589	124.7	10.332118766074
4	967388	124.8	1.0980546967879
4	968187	124.9	10.336451342983
4	968986	125	8.3795981055452
4	969785	125.1	5.1189696702406
4	970584	125.2	9.1992386303607
4	971383	125.3	1.1480683414091
4	972182	125.4	2.387930264666
4	972981	125.5	6.5310860429779
4	973780	125.6	7.2976466342276
4	974636	125.7	8.563601924534
4	975435	125.8	5.012884703702
4	976178	125.9	5.6963027594953
4	976921	126	12.689428739284
4	977664	126.1	4.1695906649906
4	978407	126.2	3.2855754456201
4	979150	126.3	13.835471651118
4	979893	126.4	1.2619448335984
4	980636	126.5	5.8251572878836
4	981379	126.6	6.4386650807219
4	982179	126.7	8.906204107383
4	982922	126.8	1.7968381103222
4	983665	126.9	10.362663529181
4	984408	127	4.4506757041787
4	985151	127.1	10.159174814305
4	985894	127.2	2.108516899233
4	986637	127.3	7.6061101572209
4	987380	127.4	10.948881012147
4	988123	127.5	0.973
4	988866	127.6	15.840989237009
4	989666	127.7	-0.10753194277604
4	990409	127.8	10.427232050508
4	991152	127.9	2.8636780308052
4	991895	128	10.150199080577
4	992638	128.1	1.8061517992859
4	993381	128.2	8.3059959990742
4	994124	128.3	7.2986752352484
4	994867	128.4	7.4644470958146
4	995610	128.5	-0.35905791862448
4	996353	128.6	8.9187950562901
4	997153	128.7	9.9761236699469
4	997896	128.8	0.50589442081618
4	998639	128.9	14.620275671835
4	999374	129	6.2283656392984
4	1000109	129.1	0.71820628110096
4	1000844	129.2	10.815069650957
4	1001579	129.3	0.3657494224147
4	1002314	129.4	12.798589117566
4	1003049	129.5	5.2091906153857
4	1003784	129.6	3.919467362339
4	1004576	129.7	9.6760542565745
4	1005311	129.8	7.8534490029406
4	1006046	129.9	-0.22831755588827
4	1006781	130	7.9469248447683
4	1007516	130.1	4.9045862711802
4	1008251	130.2	10.234896651201
4	1008986	130.3	6.9605173167933
4	1009721	130.4	1.392681937407
4	1010456	130.5	13.652327006389
4	1011191	130.6	5.5915361199582
4	1011983	130.7	6.8267239250571
4	1012718	130.8	-0.27486138128729
4	1013453	130.9	5.5159981145195
4	1014188	131	13.565740406564
4	1014923	131.1	0.74211717856097
4	1015658	131.2	11.465964172767
4	1016393	131.3	5.6295820347782
4	1017128	131.4	8.3063794006797
4	1017863	131.5	4.0760544714175
4	1018598	131.6	5.9840717011526
4	1019390	131.7	6.1602780516727
4	1020125	131.8	7.101322957234
4	1020860	131.9	10.392272621697
4	1021595	132	-1.9840814281721
4	1022330	132.1	13.221155626726
4	1023065	132.2	3.9403811086681
4	1023800	132.3	3.2247276765543
4	1024535	132.4	13.729169532988
4	1025270	132.5	2.8166532191795
4	1026005	132.6	8.8007868890757
4	1026797	132.7	5.4801033506259
4	1027532	132.8	4.4762428956149
4	1028267	132.9	0.94857010473297
4	1029002	133	6.0936076283476
4	1029737	133.1	9.2782946462595
4	1030472	133.2	12.930611159552
4	1031207	133.3	6.5802519684483
4	1031942	133.4	0.60742971325391
4	1032677	133.5	7.6942146130118
4	1033412	133.6	9.8723668508258
4	1034204	133.7	5.3367465552114
4	1034939	133.8	3.6981828870053
4	1035674	133.9	2.0998025017008
4	1036409	134	12.590076140936
4	1037144	134.1	4.6171689557873
4	1037879	134.2	2.4323961684648
4	1038614	134.3	5.3588368016943
4	1039349	134.4	11.953474059264
4	1040084	134.5	4.4359143498864
4	1040819	134.6	6.6966523651343
4	1041611	134.7	2.8309273603995
4	1042346	134.8	12.899459731286
4	1043081	134.9	2.489879704869
4	1043816	135	10.948245803038
4	1044551	135.1	0.68370751255371
4	1045286	135.2	9.9235603793218
4	1046021	135.3	10.01780826731
4	1046756	135.4	0.44371030482264
4	1047491	135.5	8.7916326163697
4	1048226	135.6	4.5465307562444
4	1049018	135.7	3.3389270314029
4	1049753	135.8	13.176601872625
4	1050488	135.9	7.9504421753066
4	1051223	136	3.0903496270441
4	1051958	136.1	4.0436643277787
4	1052693	136.2	13.011857464756
4	1053428	136.3	-1.7645646341058
4	1054163	136.4	7.439884846939
4	1054898	136.5	3.9950421714198
4	1055633	136.6	6.4524822047292
4	1056425	136.7	10.95394286691
4	1057160	136.8	3.1102254986856
4	1057895	136.9	13.974622263377
4	1058630	137	1.1682093641861
4	1059365	137.1	5.3683769616913
4	1060100	137.2	9.0205283322705
4	1060835	137.3	2.1866483834647
4	1061570	137.4	6.8274948064741
4	1062305	137.5	12.157863600647
4	1063040	137.6	5.7105969933128
4	1063832	137.7	6.7365839538899
4	1064567	137.8	8.7863069806569
4	1065302	137.9	4.3442693541802
4	1066037	138	3.1677960414467
4	1066772	138.1	10.680439765254
4	1067507	138.2	6.020392262667
4	1068242	138.3	2.7824544465619
4	1068977	138.4	5.8797344911516
4	1069712	138.5	12.247684562583
4	1070447	138.6	0.973
4	1071239	138.7	13.389641354413
4	1071974	138.8	-1.3797557867191
4	1072709	138.9	16.090260170911
4	1073444	139	1.0161048984986
4	1074179	139.1	9.7956205782038
4	1074914	139.2	4.3525733103746
4	1075649	139.3	6.9595302237234
4	1076384	139.4	6.3237111329205
4	1077119	139.5	1.6339832266229
4	1077854	139.6	13.046611017144
4	1078646	139.7	1.7064016924309
4	1079381	139.8	11.258085389171
4	1080116	139.9	7.7478040821409
4	1080851	140	0.28125554520937
4	1081586	140.1	5.4235873930447
4	1082321	140.2	6.8981464814514
4	1083056	140.3	13.341048942941
4	1083791	140.4	-2.1861831999784
4	1084526	140.5	14.765605690215
4	1085261	140.6	-2.0337879182655
4	1086053	140.7	11.396677997351
4	1086788	140.8	8.9126086075478
4	1087523	140.9	3.7171786672134
4	1088258	141	4.4632642620203
4	1088993	141.1	3.524859025263
4	1089728	141.2	5.4107916189595
4	1090463	141.3	16.01000901689
4	1091198	141.4	-2.4095508301734
4	1091933	141.5	7.2250547924265
4	1092668	141.6	5.0854838368886
4	1093460	141.7	5.9779381013211
4	1094195	141.8	15.761193038669
4	1094930	141.9	2.200717158326
4	1095665	142	9.6918526754893
4	1096400	142.1	-0.28767355930087
4	1097135	142.2	14.349203857839
4	1097870	142.3	3.3262838608432
4	1098605	142.4	7.7236323461404
4	1099340	142.5	6.7113325501491
4	1100075	142.6	4.0853102389093
4	1100867	142.7	1.369368586423
4	1101602	142.8	14.620539666915
4	1102337	142.9	3.0192585291268
4	1103072	143	9.9202948113176
4	1103807	143.1	3.9225884540991
4	1104542	143.2	5.2968400332906
4	1105277	143.3	2.9776676155836
4	1106012	143.4	13.549514151281
4	1106747	143.5	4.0480376325141
4	1107482	143.6	4.3608014224237
4	1108274	143.7	4.630177032183
4	1109009	143.8	9.8947224360806
4	1109744	143.9	7.4140300549928
4	1110479	144	-1.1431404224824
4	1111214	144.1	12.476211736364
4	1111949	144.2	3.8705317806196
4	1112684	144.3	6.6766920371855
4	1113419	144.4	8.611144108753
4	1114154	144.5	1.666390527701
4	1114889	144.6	6.6655382131544
4	1115681	144.7	9.822076742926
4	1116416	144.8	4.3213919323542
4	1117151	144.9	8.7575282542945
4	1117886	145	0.62952019982113
4	1118621	145.1	6.6310393869764
4	1119356	145.2	14.109049666308
4	1120091	145.3	0.16310922201916
4	1120826	145.4	9.7523731727236
4	1121561	145.5	7.6591465181412
4	1122296	145.6	0.75702985475946
4	1123088	145.7	10.074583089892
4	1123823	145.8	3.3153896585794
4	1124558	145.9	7.7136078531094
4	1125293	146	13.531075897261
4	1126028	146.1	6.7137090429421
4	1126763	146.2	-0.68650263439778
4	1127498	146.3	6.5354457555158
4	1128233	146.4	10.97188135101
4	1128968	146.5	1.470588785076
4	1129703	146.6	4.899990115282
4	1130495	146.7	5.2347855353478
4	1131230	146.8	10.55355515259
3	22	0.3	-0.055038892605808
3	32	0.4	-0.15293093572836
3	42	0.5	-0.16134547389811
3	52	0.6	0.30187796714017
3	62	0.7	-0.31897781183943
3	72	0.8	0.39132805308327
3	82	0.9	-0.37796069984324
3	92	1	0.52949617558625
3	102	1.1	-0.24988612451125
3	112	1.2	-0.027913023368455
3	122	1.3	0.32689050858608
3	132	1.4	-0.066506877192296
3	142	1.5	0.17506575590232
3	152	1.6	-0.74279799562646
3	162	1.7	1.0438250325387
3	172	1.8	-1.133687235415
3	182	1.9	0.86375808692537
3	192	2	-0.13848153350409
3	202	2.1	-0.1177794879186
3	212	2.2	-0.39257490221644
3	222	2.3	-0.025554616295267
3	253	2.4	0.41523944382789
3	284	2.5	0.10899047279963
3	315	2.6	-0.55411746958271
3	346	2.7	0.62335325899767
3	377	2.8	-0.38846964365803
3	408	2.9	0.34991292399354
3	439	3	-0.73614202119643
3	470	3.1	1.0210054711206
3	501	3.2	-0.91217059205519
3	532	3.3	0.49559901381144
3	563	3.4	-0.40912839060184
3	594	3.5	0.35054159001447
3	625	3.6	-0.19800256646704
3	656	3.7	-0.052191397408023
3	687	3.8	0.17326607543509
3	718	3.9	0.055808203760535
3	749	4	-0.27655299025355
3	780	4.1	0.81588501750957
3	811	4.2	-0.45961602038005
3	842	4.3	0.35908509773435
3	873	4.4	-0.68823229172267
3	904	4.5	0.65045977651607
3	968	4.6	0.10166522930376
3	1032	4.7	-0.60302165948087
3	1096	4.8	0.49414264416555
3	1160	4.9	-0.90178336220561
3	1224	5	0.61724760715151
3	1288	5.1	0.016147546120919
3	1352	5.2	0.42218950140523
3	1416	5.3	-0.70935794967227
3	1480	5.4	0.61982140643522
3	1544	5.5	0.052479109726846
3	1608	5.6	-0.59863046044484
3	1672	5.7	0.047042363439687
3	1736	5.8	-0.080096596502699
3	1800	5.9	0.66528655792354
3	1864	6	-0.6662675878033
3	1928	6.1	-0.022561806254089
3	1992	6.2	0.29842466756236
3	2056	6.3	0.21242874994641
3	2120	6.4	-0.11697753681801
3	2184	6.5	-0.39790246810298
3	2248	6.6	-0.15251986216754
3	2312	6.7	0.51202539500082
3	2421	6.8	0.33952986821532
3	2530	6.9	0.0012535875430331
3	2639	7	-0.46569099649787
3	2748	7.1	-0.17024289962137
3	2857	7.2	0.70707216131268
3	2966	7.3	-0.10126096953172
3	3075	7.4	0.001836062874645
3	3184	7.5	-0.36941909260349
3	3293	7.6	-0.34776141372276
3	3402	7.7	0.53385328530567
3	3511	7.8	0.21431123139337
3	3620	7.9	-1.0441946148057
3	3729	8	0.32735727698309
3	3838	8.1	-0.061146027001087
3	3947	8.2	0.66641979297856
3	4056	8.3	0.20385476615047
3	4165	8.4	0.019265085575171
3	4274	8.5	-0.33164060820127
3	4383	8.6	-0.86522572033573
3	4492	8.7	0.48253901128192
3	4601	8.8	0.0048817929928191
3	4710	8.9	-0.47562138468493
3	4876	9	0.13292542891577
3	5042	9.1	0.099231204367243
3	5208	9.2	-0.14259937277529
3	5374	9.3	-0.10539127222728
3	5540	9.4	0.58011479442939
3	5706	9.5	0.13306886365172
3	5872	9.6	0.46959511440946
3	6038	9.7	-0.33599725400563
3	6204	9.8	-0.17597211844986
3	6370	9.9	0.42049351497553
3	6536	10	-0.60243921150686
3	6702	10.1	0.31666001508711
3	6868	10.2	-0.058205784880556
3	7034	10.3	0.13402617885731
3	7200	10.4	0.20014255249407
3	7366	10.5	-0.46127785637509
3	7532	10.6	-0.49859611113789
3	7698	10.7	0.87659817829262
3	7864	10.8	-0.80058930296218
3	8030	10.9	0.96762071741978
3	8196	11	-0.52540036733262
3	8362	11.1	0.11005822569132
3	8597	11.2	-0.49926949781366
3	8832	11.3	0.53188485238934
3	9067	11.4	0.19989193504443
3	9302	11.5	-0.86885336757405
3	9537	11.6	0.34739693655865
3	9772	11.7	0.6828566925833
3	10007	11.8	-0.27111559407786
3	10242	11.9	-0.6044771411689
3	10477	12	0.67306718119653
3	10712	12.1	-0.44647878734395
3	10947	12.2	-0.13871395291062
3	11182	12.3	0.24088373524137
3	11417	12.4	-0.16227526648436
3	11652	12.5	-0.15772077895235
3	11887	12.6	0.17098685173551
3	12122	12.7	0.18878804694396
3	12357	12.8	0.28349412546959
3	12592	12.9	-0.52070659585297
3	12827	13	0.8071615616791
3	13062	13.1	-1.106602892396
3	13297	13.2	0.50241130840732
3	13532	13.3	-0.49611123366049
3	13840	13.4	0.51068253582343
3	14148	13.5	0.12197699659737
3	14456	13.6	-0.54176285804715
3	14764	13.7	0.84439019410638
3	15072	13.8	-0.88545053207781
3	15380	13.9	0.60601975041209
3	15688	14	0.32877072051633
3	15996	14.1	-0.61484989215387
3	16304	14.2	-0.11598404293181
3	16612	14.3	0.0091834555496462
3	16920	14.4	0.61035667080432
3	17228	14.5	-0.86859254603041
3	17536	14.6	-0.0029556205845438
3	17844	14.7	0.31052725418704
3	18152	14.8	0.54513214505278
3	18460	14.9	0.057751699350774
3	18768	15	0.18011594307609
3	19076	15.1	-1.022587036714
3	19384	15.2	-0.19822742324322
3	19692	15.3	0.024831273767632
3	20000	15.4	0.7016696719802
3	20308	15.5	0.33376410487108
3	20693	15.6	-0.79761639470235
3	21078	15.7	0.12316618231125
3	21463	15.8	-0.23562921065604
3	21848	15.9	1.0064710682491
3	22233	16	-0.78488377126632
3	22618	16.1	0.62766296381596
3	23003	16.2	-0.74693054251838
3	23388	16.3	0.23886970011517
3	23773	16.4	0.15967969753547
3	24158	16.5	-0.073724086105358
3	24543	16.6	-0.15841886692215
3	24928	16.7	0.13674092711881
3	25313	16.8	0.17937727272511
3	25698	16.9	-0.18891284038546
3	26083	17	-0.2254521031864
3	26468	17.1	0.030681975185871
3	26853	17.2	0.57450222782791
3	27238	17.3	-0.27264818898402
3	27623	17.4	-0.61716956231976
3	28008	17.5	0.17043831263436
3	28393	17.6	0.94101359427441
3	28778	17.7	0.036760403600056
3	29244	17.8	0.021220151975285
3	29710	17.9	-0.74106134154135
3	30176	18	0.47054180729901
3	30642	18.1	-0.52135980251478
3	31108	18.2	0.6484709243523
3	31574	18.3	-0.30408495047595
3	32040	18.4	-0.14497768483125
3	32506	18.5	0.52482269209577
3	32972	18.6	-0.55857665487565
3	33438	18.7	-0.2761475846637
3	33904	18.8	0.86527408740949
3	34370	18.9	-0.41969061159762
3	34836	19	0.16542469646083
3	35302	19.1	-0.16977172519546
3	35768	19.2	0.0077256592339836
3	36234	19.3	-0.15609589201631
3	36700	19.4	0.0019301913562231
3	37166	19.5	0.19200849637855
3	37632	19.6	-0.12879877787782
3	38098	19.7	-0.30531935859472
3	38564	19.8	-0.33964688016567
3	39030	19.9	0.94033232249785
3	39581	20	0.23753932619002
3	40132	20.1	-0.0012814969522879
3	40683	20.2	-1.0937005493906
3	41234	20.3	0.64331979956478
3	41785	20.4	-0.31525029189652
3	42336	20.5	0.0049632368609309
3	42887	20.6	0.3423815977294
3	43438	20.7	0.44079991086619
3	43989	20.8	-0.66320244921371
3	44540	20.9	-0.54126119677676
3	45091	21	0.35873813816579
3	45642	21.1	-0.38256207422819
3	46193	21.2	0.5650292779319
3	46744	21.3	-0.0069114039069973
3	47295	21.4	-0.17006235197186
3	47846	21.5	0.45526164583862
3	48397	21.6	-0.35181100975024
3	48948	21.7	-0.034489062381908
3	49499	21.8	0.13489484379534
3	50042	21.9	-0.24699466186576
3	50585	22	0.082661871565506
3	51128	22.1	0.56089251476806
3	51951	22.2	-0.39268552471185
3	52774	22.3	0.20000835356768
3	53597	22.4	-0.80596491025062
3	54420	22.5	0.54401704255724
3	55243	22.6	0.62678543414222
3	56115	22.7	-0.46330341137946
3	57014	22.8	-0.62819167971611
3	57913	22.9	0.93346177891362
3	58812	23	-0.065617979853414
3	59711	23.1	-0.2977460421971
3	60610	23.2	0.26062724617077
3	61509	23.3	-0.16051911923569
3	62408	23.4	-0.5284242038033
3	63307	23.5	0.058254397590645
3	64206	23.6	0.21186885453062
3	65158	23.7	-0.35625777236419
3	66057	23.8	0.87593429198023
3	66956	23.9	-0.14601150149247
3	67855	24	0.3015333233634
3	68754	24.1	-1.0235030445619
3	69653	24.2	0.72907428519102
3	70552	24.3	-0.74249853234505
3	71451	24.4	0.3950130045996
3	72350	24.5	0.10463824146427
3	73249	24.6	0.32861558196601
3	74201	24.7	0.18963529233588
3	75108	24.8	-0.94374304026132
3	76015	24.9	0.58055659814272
3	76922	25	0.0093200840638019
3	77829	25.1	-0.015348228916992
3	78736	25.2	-0.49536713951966
3	79643	25.3	-0.0064207694958895
3	80550	25.4	0.064117036527023
3	81457	25.5	0.77407532400684
3	82364	25.6	-0.62921100266976
3	83324	25.7	0.71374212799128
3	84231	25.8	-0.62155355728464
3	85138	25.9	-0.1055372346309
3	86045	26	0.012922521855216
3	86952	26.1	0.23240711336257
3	87859	26.2	-0.36121750628809
3	88766	26.3	0.096141820249613
3	89673	26.4	-0.14705487381434
3	90580	26.5	0.35245400184067
3	91487	26.6	0.14491944632027
3	92447	26.7	-0.44156041753013
3	93354	26.8	0.58889843843644
3	94261	26.9	0.11441958631622
3	95168	27	-0.70137027476449
3	96075	27.1	0.43943834258243
3	96982	27.2	-0.023309231328312
3	97889	27.3	0.29310973011889
3	98796	27.4	-0.038361535407603
3	99703	27.5	-0.3056200555875
3	100610	27.6	0.27723844454158
3	101570	27.7	-0.88120717526181
3	102477	27.8	0.40207048819866
3	103384	27.9	0.076105330081191
3	104291	28	0.34161706571467
3	105198	28.1	-0.11129949765746
3	106105	28.2	-0.82491160457721
3	107012	28.3	0.35911409097025
3	107919	28.4	-0.11099551658845
3	108826	28.5	0.76838895765832
3	109733	28.6	-0.39477686485043
3	110693	28.7	0.22389504534658
3	111600	28.8	-0.021896514226682
3	112507	28.9	-0.25111280701822
3	113414	29	0.49818899744423
3	114313	29.1	-0.87203080649488
3	115212	29.2	-0.019171892199665
3	116111	29.3	0.77584076410858
3	117010	29.4	-0.39641598879825
3	117909	29.5	-0.50987045018701
3	118808	29.6	0.31889786361717
3	119760	29.7	0.57840398338158
3	120659	29.8	-0.54365929303458
3	121558	29.9	0.75333569431677
3	122457	30	-1.06637388526
3	123356	30.1	0.36810716672335
3	124255	30.2	0.35196088021621
3	125154	30.3	0.11127997160656
3	126053	30.4	-0.28157679189462
3	126952	30.5	-0.037308198807295
3	127851	30.6	0.60126697819214
3	128803	30.7	-0.098369420447852
3	129702	30.8	-0.37893587257713
3	130601	30.9	0.46143280749675
3	131500	31	-1.1626380452071
3	132399	31.1	0.0074521414353512
3	133298	31.2	1.0043701578979
3	134197	31.3	-0.38606874732068
3	135096	31.4	-0.21089892979944
3	135995	31.5	-0.21903922053752
3	136894	31.6	0.92683643830242
3	137846	31.7	0.091038158570882
3	138745	31.8	-0.31837897869991
3	139644	31.9	-0.16943890281254
3	140543	32	0.18978567415616
3	141442	32.1	0.012398890103213
3	142341	32.2	-0.82098972721724
3	143240	32.3	-0.0066801271168515
3	144139	32.4	0.66185401432449
3	145038	32.5	-0.77578733675182
3	145937	32.6	0.3225876452052
3	146889	32.7	0.44788548431825
3	147788	32.8	-0.38400935998652
3	148687	32.9	0.0080807294580154
3	149586	33	0.40662179148057
3	150485	33.1	-0.59038030623924
3	151384	33.2	1.0073123205802
3	152283	33.3	-0.95485493715387
3	153182	33.4	0.49082969897427
3	154081	33.5	-0.23214529530378
3	154980	33.6	-0.072732330590952
3	155932	33.7	0.43297619820805
3	156831	33.8	-0.0314203769085
3	157730	33.9	-0.31505161488894
3	158629	34	-0.44179916119901
3	159528	34.1	0.56107279291609
3	160427	34.2	0.26662268966902
3	161326	34.3	-0.31941066496074
3	162225	34.4	-0.062918460753281
3	163124	34.5	0.325328730396
3	164023	34.6	-0.22227041539736
3	164975	34.7	-0.45129677047953
3	165874	34.8	0.17821023153374
3	166773	34.9	0.084153255156707
3	167672	35	-0.027573060069699
3	168571	35.1	-0.40422041463899
3	169470	35.2	-0.021818997047376
3	170369	35.3	1.1743239904172
3	171268	35.4	-0.5857670068508
3	172167	35.5	0.30234827252571
3	173066	35.6	-0.30726909724763
3	174018	35.7	0.27653675351758
3	174917	35.8	-0.21659734309651
3	175816	35.9	-0.37255026923958
3	176715	36	-0.010270987113472
3	177614	36.1	-0.21075700817164
3	178513	36.2	0.57951379450969
3	179412	36.3	0.044928092393093
3	180311	36.4	-0.27841787523357
3	181210	36.5	-0.3731512837112
3	182109	36.6	0.25083040789468
3	183061	36.7	-0.19902766303858
3	183960	36.8	0.90512774972012
3	184851	36.9	-0.84100086882245
3	185742	37	0.96391995291924
3	186633	37.1	-0.37820962577825
3	187524	37.2	-0.0054393857135437
3	188415	37.3	0.20296437782235
3	189306	37.4	-0.57249902019976
3	190197	37.5	0.78685012296774
3	191088	37.6	-0.24578707438195
3	192032	37.7	-0.018968433432747
3	192923	37.8	-0.48896139865974
3	193814	37.9	0.38494284177432
3	194705	38	-0.18103301961673
3	195596	38.1	0.072130347252823
3	196487	38.2	-0.43125711352332
3	197378	38.3	0.68687683902681
3	198269	38.4	0.26275375275873
3	199160	38.5	-1.1612446795334
3	200051	38.6	0.47837204881944
3	200995	38.7	0.48995288234437
3	201886	38.8	-0.56619581067935
3	202777	38.9	-0.33861386677017
3	203668	39	-0.077532870927826
3	204559	39.1	0.75029010913568
3	205450	39.2	0.30488119024085
3	206333	39.3	0.082517481350806
3	207216	39.4	-0.42754209192935
3	208099	39.5	0.35003559314646
3	208982	39.6	-0.51555015350459
3	209918	39.7	-0.30095027061179
3	210801	39.8	0.93344192835502
3	211684	39.9	-0.8786492983927
3	212567	40	0.19454577792203
3	213450	40.1	0.5563703054213
3	214333	40.2	-0.71332042105496
3	215216	40.3	0.26493764249608
3	216099	40.4	-0.18643293675268
3	216982	40.5	0.31719293445349
3	217865	40.6	0.35616916924482
3	218801	40.7	-0.97235902474495
3	219684	40.8	0.3737114003161
3	220567	40.9	-0.059025596419815
3	221450	41	0.12427311536158
3	222333	41.1	0.57618948601885
3	223216	41.2	-0.84934753685957
3	224099	41.3	-0.0070867303293198
3	225066	41.4	0.83502099238103
3	226033	41.5	-0.95612892386271
3	227000	41.6	-0.082499917189125
3	228024	41.7	0.67591868049931
3	228991	41.8	0.057746213278733
3	229958	41.9	-0.41068891965551
3	230925	42	0.69759503734531
3	231892	42.1	-0.55153698747745
3	232859	42.2	0.39943041774677
3	233826	42.3	-0.21608324837871
3	234793	42.4	0.24708767421544
3	235760	42.5	0.24636604648549
3	236727	42.6	-0.59024348185631
3	237751	42.7	0.21288319694577
3	238718	42.8	-0.36247619224014
3	239685	42.9	0.63620425702538
3	240652	43	-0.36501102993498
3	241619	43.1	-0.12129272538004
3	242586	43.2	0.39470216928748
3	243553	43.3	-0.96505624649581
3	244520	43.4	0.22267545020441
3	245487	43.5	0.47008606838062
3	246454	43.6	-0.47910986962961
3	247478	43.7	-0.016441888583358
3	248445	43.8	-0.15644938510377
3	249412	43.9	0.34343186940532
3	250379	44	0.15965928061632
3	251346	44.1	-0.52951100951759
3	252313	44.2	1.1410026092199
3	253280	44.3	-0.29663164081285
3	254247	44.4	0.18667148164241
3	255214	44.5	-1.024803063483
3	256181	44.6	0.91720723925391
3	257205	44.7	-0.23725008883048
3	258172	44.8	0.33136136597022
3	259139	44.9	-0.82660391984973
3	260106	45	0.86537653027335
3	261073	45.1	-0.46647314855363
3	262040	45.2	0.13143121672329
3	263007	45.3	-0.7287117355736
3	263974	45.4	1.0606576720602
3	264941	45.5	-0.024578171723988
3	265908	45.6	-0.011947977473028
3	266932	45.7	-0.75260449782945
3	267899	45.8	0.012739255325869
3	268866	45.9	0.48131388728507
3	269833	46	-0.32377173134591
3	270800	46.1	-0.21365855354816
3	271767	46.2	-0.11673036060529
3	272734	46.3	0.10685446090065
3	273701	46.4	0.14130049617961
3	274668	46.5	0.61306793184485
3	275635	46.6	-0.98604576895013
3	276659	46.7	0.99990420188988
3	277626	46.8	0.022117994376458
3	278593	46.9	-0.85032438859344
3	279560	47	0.9122631160426
3	280527	47.1	-1.1309555004118
3	281494	47.2	0.85300601553172
3	282461	47.3	-0.33658786589513
3	283428	47.4	-0.11637255724054
3	284395	47.5	0.020593199587893
3	285362	47.6	-0.35284667450469
3	286386	47.7	0.6363895474351
3	287353	47.8	-0.14353668520926
3	288320	47.9	0.62079910218017
3	289287	48	-0.37194629549049
3	290254	48.1	-0.81347321218345
3	291221	48.2	0.49554176279344
3	292188	48.3	0.22158069390571
3	293155	48.4	-0.1325199304847
3	294122	48.5	0.32877440447919
3	295089	48.6	-0.89428956358461
3	296113	48.7	0.15931909991195
3	297080	48.8	1.0045613726834
3	298047	48.9	-0.35040319780819
3	299014	49	0.21781308605568
3	299981	49.1	-1.0311981712584
3	300948	49.2	0.93361581501085
3	301915	49.3	-0.045896042138338
3	302882	49.4	0.070406531449407
3	303849	49.5	-0.26590912922984
3	304816	49.6	-0.29215979768196
3	305840	49.7	0.4028024157742
3	306807	49.8	0.3296242034412
3	307774	49.9	-0.049743697163649
3	308741	50	-0.056597241200507
3	309708	50.1	-0.49029910791432
3	310675	50.2	-0.16817585419631
3	311642	50.3	0.30734830274014
3	312609	50.4	0.21443892590469
3	313576	50.5	-0.66548557515489
3	314543	50.6	-0.20919192727888
3	315567	50.7	1.1784176336369
3	316534	50.8	-0.24747762799961
3	317501	50.9	-0.52651518693892
3	318468	51	0.38750093692215
3	319435	51.1	-0.17896604782436
3	320402	51.2	-0.14333444385557
3	321369	51.3	-0.080561546783429
3	322336	51.4	0.52795929426793
3	323303	51.5	-0.055255993793253
3	324270	51.6	0.10139156394871
3	325294	51.7	-0.9056664959644
3	326261	51.8	-0.024102928582579
3	327228	51.9	0.017034098564181
3	328195	52	0.30794509744737
3	329162	52.1	-0.094964690506458
3	330129	52.2	0.8486372322659
3	331096	52.3	-0.80912123085
3	332063	52.4	-0.10109066934092
3	333030	52.5	0.77330583997536
3	333997	52.6	-0.96756820013979
3	335021	52.7	0.82002474722685
3	335988	52.8	-0.8352824288886
3	336955	52.9	-0.022020862961654
3	337922	53	0.98046250845073
3	338889	53.1	-0.87705537298461
3	339856	53.2	0.23882816894911
3	340823	53.3	0.25157169264276
3	341790	53.4	-0.45933281217003
3	342757	53.5	-0.0085472053615376
3	343724	53.6	0.80450505309273
3	344748	53.7	-0.82103298889706
3	345715	53.8	0.54734796402045
3	346682	53.9	0.48118390724994
3	347649	54	-0.67182650382165
3	348616	54.1	-0.21132270456292
3	349583	54.2	-0.22587269399082
3	350550	54.3	0.74652758194134
3	351517	54.4	0.43737145664636
3	352484	54.5	-0.27963193482719
3	353451	54.6	-0.39088846853701
3	354475	54.7	0.064196629682556
3	355442	54.8	-0.60312434798107
3	356409	54.9	0.019869938259944
3	357376	55	1.1825142827001
3	358343	55.1	-0.29034366511041
3	359310	55.2	-0.18824132101145
3	360277	55.3	-0.080411898961756
3	361244	55.4	-0.59406722022686
3	362211	55.5	1.0516296850983
3	363178	55.6	-1.0635613228078
3	364202	55.7	1.0703619901324
3	365169	55.8	-0.21055724180769
3	366136	55.9	-0.19147512648487
3	367103	56	0.28160566580482
3	368070	56.1	-0.34123083489249
3	369037	56.2	-0.14628156699473
3	370004	56.3	0.083023580664303
3	370971	56.4	-0.1049361214973
3	371938	56.5	0.27215232345043
3	372905	56.6	0.24577395728556
3	373929	56.7	-0.96789377304958
3	374896	56.8	0.46050364559051
3	375863	56.9	0.068896622105967
3	376830	57	0.076941773877479
3	377797	57.1	-0.58628244762076
3	378764	57.2	0.36594693461666
3	379731	57.3	0.22653628373519
3	380698	57.4	-0.27807146107079
3	381665	57.5	0.71551387954969
3	382624	57.6	-0.46259227849077
3	383640	57.7	0.58818230521865
3	384599	57.8	-0.3119230538141
3	385558	57.9	-0.23772753076628
3	386517	58	-0.66752505925251
3	387476	58.1	0.22681881877361
3	388435	58.2	0.79917221039068
3	389394	58.3	0.088512872462161
3	390345	58.4	-0.011285750661045
3	391296	58.5	-0.83437550201779
3	392247	58.6	-0.14048549695872
3	393255	58.7	0.050603279669303
3	394206	58.8	0.73262908234028
3	395157	58.9	-0.81908019608818
3	396108	59	0.33175027172547
3	397059	59.1	0.13687093392946
3	398010	59.2	-0.47892215719912
3	398961	59.3	0.77739092201227
3	399912	59.4	-0.19016083620954
3	400863	59.5	-0.59405774722109
3	401814	59.6	0.64554044744
3	402822	59.7	-0.0046569219557568
3	403773	59.8	-0.66800134227378
3	404724	59.9	0.34542193665402
3	405619	60	0.57917206751881
3	406514	60.1	-0.4565947278752
3	407409	60.2	0.45455026731361
3	408304	60.3	-0.6583075542585
3	409199	60.4	-0.16414345736848
3	410094	60.5	0.99564987991471
3	410989	60.6	-0.55953371775104
3	411941	60.7	-0.29692652227823
3	412836	60.8	0.72366566164419
3	413731	60.9	-0.36098566983128
3	414626	61	-0.57896386395441
3	415521	61.1	0.033634452847764
3	416416	61.2	0.38302366156131
3	417311	61.3	0.63135929231066
3	418206	61.4	-0.13178509863792
3	419101	61.5	-0.069000795192551
3	419996	61.6	-0.025038659223355
3	420948	61.7	-0.64686287398217
3	421843	61.8	0.34562884073239
3	422738	61.9	0.39098425564589
3	423633	62	0.22477518301457
3	424528	62.1	-0.48181312973611
3	425423	62.2	-0.69535045826342
3	426318	62.3	0.32461837196024
3	427213	62.4	0.19060524587985
3	428108	62.5	-0.41337682399899
3	429003	62.6	0.13916416501161
3	429955	62.7	0.90600069059292
3	430850	62.8	-0.5144315463258
3	431745	62.9	-0.39212034986122
3	432640	63	-0.24780301377177
3	433535	63.1	-0.007360901508946
3	434430	63.2	0.83307824097574
3	435325	63.3	0.13779942004476
3	436220	63.4	-0.16599011141807
3	437115	63.5	-0.27613738289801
3	438010	63.6	0.60595729300985
3	438962	63.7	-0.89936830539955
3	439857	63.8	0.11519102845341
3	440752	63.9	0.29601717484184
3	441647	64	-0.56659000576474
3	442542	64.1	0.77207359601744
3	443437	64.2	-0.40429675427731
3	444332	64.3	0.63250577222789
3	445227	64.4	-0.052932919352315
3	446122	64.5	-0.52214253111742
3	447017	64.6	0.098073522967752
3	447969	64.7	-0.093071054725442
3	448864	64.8	-0.48947877716273
3	449759	64.9	0.85592169343727
3	450654	65	-0.78422808350297
3	451549	65.1	1.0055852634832
3	452444	65.2	-0.33488128567114
3	453339	65.3	-0.30361656972673
3	454234	65.4	-0.10120288498001
3	455129	65.5	0.17445889563533
3	456016	65.6	0.33050617668778
3	456960	65.7	-0.0070829960168339
3	457847	65.8	0.15564544941299
3	458734	65.9	-0.022485758236144
3	459621	66	-0.39586632163264
3	460508	66.1	-0.13654096313985
3	461395	66.2	0.65538206166821
3	462282	66.3	-0.40111107111443
3	463169	66.4	0.13045932078967
3	464056	66.5	-0.86470248526894
3	464943	66.6	0.61165383696789
3	465887	66.7	-0.58301001583459
3	466774	66.8	1.0447636450408
3	467661	66.9	-0.18834829650586
3	468548	67	-0.33082123263739
3	469435	67.1	-0.28917090385221
3	470322	67.2	-0.071391988021787
3	471209	67.3	0.42244105163263
3	472096	67.4	-0.59644068271155
3	472983	67.5	0.42644071363611
3	473870	67.6	-0.071139720093925
3	474814	67.7	0.033174741256516
3	475701	67.8	0.6082611772581
3	476588	67.9	-0.018883366137743
3	477475	68	-0.17324785265373
3	478362	68.1	-0.006197860930115
3	479249	68.2	-0.68898091180017
3	480136	68.3	0.94665890646866
3	481023	68.4	-0.90687079617055
3	481910	68.5	-0.052027458441444
3	482797	68.6	-0.080504006764386
3	483741	68.7	0.71722133638104
3	484628	68.8	-0.52261822391301
3	485515	68.9	0.30423800460994
3	486402	69	0.3626798192272
3	487289	69.1	-0.75519780773902
3	488176	69.2	0.35646987467771
3	489063	69.3	0.46455770265311
3	489950	69.4	-0.53656926524127
3	490837	69.5	0.41829405876342
3	491724	69.6	-0.12375316815451
3	492668	69.7	0.51672793721082
3	493555	69.8	-1.1562081589364
3	494442	69.9	0.65733454161091
3	495329	70	-0.69532566296402
3	496216	70.1	0.95265907759313
3	497103	70.2	-0.63784899364691
3	497990	70.3	-0.34693562978646
3	498877	70.4	0.26720360503532
3	499764	70.5	-0.27068258234067
3	500651	70.6	1.0979579525883
3	501595	70.7	-0.64899836375844
3	502482	70.8	0.20851762325037
3	503369	70.9	0.089420359290671
3	504256	71	-0.63771001645364
3	505143	71.1	0.7571795093827
3	506030	71.2	-0.51023901789449
3	506917	71.3	-0.082723347877618
3	507804	71.4	0.086795483657625
3	508691	71.5	0.86092992743943
3	509578	71.6	-0.11145281750942
3	510522	71.7	-0.49544605746632
3	511409	71.8	-0.40866290044505
3	512296	71.9	-0.18006468919339
3	513183	72	1.2072113482282
3	514070	72.1	-0.21740456140833
3	514957	72.2	-0.51539993612096
3	515844	72.3	0.030943361052778
3	516731	72.4	-0.48300929571269
3	517618	72.5	0.7198552050977
3	518505	72.6	-0.16877593938261
3	519449	72.7	-0.042487544415053
3	520336	72.8	0.12832613865612
3	521223	72.9	-0.42857549327891
3	522110	73	0.62853188050212
3	522997	73.1	-0.19724646757822
3	523884	73.2	0.30909917695681
3	524771	73.3	-0.8998919732403
3	525658	73.4	0.30553813645383
3	526545	73.5	-0.36209661018802
3	527432	73.6	0.74574206868419
3	528376	73.7	-0.51910408219555
3	529263	73.8	0.38033832388464
3	530150	73.9	-0.35800160723738
3	531037	74	-0.25347881048219
3	531924	74.1	0.68920186953619
3	532811	74.2	-0.65656916965963
3	533698	74.3	0.011041647812817
3	534585	74.4	0.71302424970781
3	535472	74.5	-0.53561328502838
3	536359	74.6	-0.024602455378044
3	537303	74.7	0.95502543408657
3	538190	74.8	-0.72389531764202
3	539077	74.9	-0.36632118426496
3	539964	75	0.2348292581155
3	540851	75.1	0.38153516565217
3	541738	75.2	0.038154467183631
3	542625	75.3	-0.09113373584114
3	543512	75.4	-0.584223184851
3	544399	75.5	0.87314342759782
3	545286	75.6	-0.029857153131161
3	546230	75.7	-0.033840928226709
3	547117	75.8	-0.20611646556063
3	548004	75.9	-0.23026706185192
3	548891	76	-0.3871361372876
3	549778	76.1	0.79645775898825
3	550665	76.2	-0.19737293478101
3	551552	76.3	0.5128963055904
3	552439	76.4	-0.03217970894184
3	553326	76.5	-0.20838158001425
3	554213	76.6	-0.41587586485548
3	555157	76.7	0.1390510215424
3	556044	76.8	-0.17401882447302
3	556931	76.9	0.50025320670102
3	557818	77	0.0084893117309548
3	558705	77.1	0.11159821006004
3	559592	77.2	-1.0380364634329
3	560479	77.3	0.08470046450384
3	561366	77.4	0.47772988968063
3	562253	77.5	-0.43243625783362
3	563140	77.6	0.67991983931279
3	564084	77.7	-0.14661250053905
3	564971	77.8	-0.47020004480146
3	565858	77.9	0.0023388394038193
3	566745	78	0.74318301165476
3	567632	78.1	0.086254572088365
3	568519	78.2	-0.40270585857797
3	569406	78.3	-0.64093324792339
3	570293	78.4	0.59291658661095
3	571180	78.5	-0.41592120775022
3	572067	78.6	0.41060239949729
3	573011	78.7	0.098330865148455
3	573898	78.8	0.090940138034057
3	574785	78.9	0.22977667831583
3	575672	79	-0.94841313810321
3	576559	79.1	1.1230007954873
3	577446	79.2	-0.41667080688057
3	578333	79.3	0.2539893775247
3	579220	79.4	0.043643910030369
3	580107	79.5	-1.1191208494711
3	580994	79.6	0.22668447170872
3	581938	79.7	0.35814147064229
3	582825	79.8	0.39525374246296
3	583712	79.9	-0.86034201289294
3	584599	80	0.79487570386846
3	585486	80.1	-0.67536368296715
3	586373	80.2	0.89190436614444
3	587260	80.3	-0.30421022645896
3	588147	80.4	-0.35190061753383
3	589034	80.5	-0.05848587868968
3	589921	80.6	-0.10720741789555
3	590865	80.7	0.58752669167006
3	591752	80.8	0.29305555770406
3	592639	80.9	-0.13915144430939
3	593526	81	-0.6094299221877
3	594413	81.1	0.10741573380074
3	595300	81.2	0.32761956041213
3	596187	81.3	-0.73212266695919
3	597074	81.4	0.84188404405722
3	597961	81.5	-0.68930143548641
3	598848	81.6	0.138720877585
3	599792	81.7	0.31105928414036
3	600679	81.8	-0.023859174107201
3	601566	81.9	0.44227666163351
3	602453	82	-0.94263676262926
3	603340	82.1	0.84584814845584
3	604227	82.2	-0.26671370025724
3	605114	82.3	-0.31054067687364
3	606001	82.4	-0.3200680037844
3	606888	82.5	0.88343572162557
3	607775	82.6	-0.65169265784789
3	608719	82.7	-0.19745795463677
3	609606	82.8	0.37307837512344
3	610493	82.9	-0.288465807389
3	611380	83	0.80904128379188
3	612259	83.1	-0.25020578381373
3	613138	83.2	0.24013391637709
3	614017	83.3	-0.0099613922066055
3	614896	83.4	-1.0150349224568
3	615775	83.5	1.0305409491411
3	616654	83.6	-0.89768098201603
3	617590	83.7	0.97077856276883
3	618469	83.8	-0.91296834259992
3	619348	83.9	0.62438961409498
3	620227	84	0.34628443449037
3	621106	84.1	-0.23948454705533
3	621985	84.2	-0.045954050438013
3	622864	84.3	-0.54398076201323
3	623743	84.4	-0.26793068594998
3	624622	84.5	0.84873482381227
3	625501	84.6	-0.45796266611433
3	626437	84.7	0.53779720823513
3	627316	84.8	-0.5257804231951
3	628195	84.9	-0.39917723712279
3	629074	85	0.73726261587581
3	629953	85.1	-0.13093339512125
3	630832	85.2	-0.60946061945288
3	631711	85.3	1.0676014443743
3	632582	85.4	-0.28121608396759
3	633453	85.5	-0.48298717389116
3	634324	85.6	-0.15271710115485
3	635252	85.7	0.83572916977573
3	636123	85.8	-0.64785745053086
3	636994	85.9	-0.1897310896311
3	637865	86	0.60150845092721
3	638736	86.1	-0.12261392112123
3	639607	86.2	-0.35294102155603
3	640478	86.3	-0.22416560881538
3	641349	86.4	0.78616315382533
3	642220	86.5	-0.79005397012224
3	643091	86.6	0.49183356575668
3	644019	86.7	-0.27046213683207
3	644890	86.8	0.52879469731124
3	645761	86.9	0.071927351527847
3	646632	87	-0.1212470329483
3	647503	87.1	-0.83439533715136
3	648374	87.2	0.53573314100504
3	649245	87.3	0.33915431442438
3	650116	87.4	-0.24033661291469
3	650987	87.5	0.027543389296625
3	651858	87.6	0.27313128171954
3	652786	87.7	0.05753279896453
3	653657	87.8	-0.20304945675889
3	654528	87.9	-0.54306372185238
3	655399	88	0.95210918691009
3	656270	88.1	-0.16016830602894
3	657141	88.2	-0.44225065910723
3	658012	88.3	-0.086421871965285
3	658883	88.4	-0.25815204397077
3	659754	88.5	0.1578568975674
[...]
40	937597	121.1	3199.1683989049
40	938396	121.2	3202.2299821282
40	939195	121.3	3205.2958100359
40	939994	121.4	3208.3581392392
40	940793	121.5	3211.4197266667
40	941592	121.6	3214.4867139079
40	942448	121.7	3217.5502953382
40	943247	121.8	3220.6163716924
40	944046	121.9	3223.6818736799
40	944845	122	3226.7521441013
40	945644	122.1	3229.8234118185
40	946443	122.2	3232.8902330889
40	947242	122.3	3235.9599423286
40	948041	122.4	3239.0322673824
40	948840	122.5	3242.1044993987
40	949639	122.6	3245.173032794
40	950495	122.7	3248.2452321362
40	951294	122.8	3251.3167523828
40	952093	122.9	3254.3863994799
40	952892	123	3257.4512820041
40	953691	123.1	3260.5215589609
40	954490	123.2	3263.5894888783
40	955289	123.3	3266.6554845149
40	956088	123.4	3269.7176759818
40	956887	123.5	3272.7892718349
40	957686	123.6	3275.8592034343
40	958542	123.7	3278.9247378702
40	959341	123.8	3281.9935979609
40	960140	123.9	3285.0670063594
40	960939	124	3288.134384479
40	961738	124.1	3291.2053181824
40	962537	124.2	3294.2764131445
40	963336	124.3	3297.3488951989
40	964135	124.4	3300.4155918929
40	964934	124.5	3303.487544649
40	965733	124.6	3306.5503340985
40	966589	124.7	3309.6223058546
40	967388	124.8	3312.6892067179
40	968187	124.9	3315.7558155349
40	968986	125	3318.8192919661
40	969785	125.1	3321.8884971463
40	970584	125.2	3324.9577712835
40	971383	125.3	3328.0294399126
40	972182	125.4	3331.1011970871
40	972981	125.5	3334.1703688019
40	973780	125.6	3337.240909911
40	974636	125.7	3340.3101051432
40	975435	125.8	3343.3760018319
40	976178	125.9	3346.4388320212
40	976921	126	3349.5087604749
40	977664	126.1	3352.5746316194
40	978407	126.2	3355.6406064136
40	979150	126.3	3358.7067015079
40	979893	126.4	3361.7740706246
40	980636	126.5	3364.8457789825
40	981379	126.6	3367.9139902296
40	982179	126.7	3370.9790370258
40	982922	126.8	3374.0415131078
40	983665	126.9	3377.1064820109
40	984408	127	3380.1770483621
40	985151	127.1	3383.2467700313
40	985894	127.2	3386.3174187594
40	986637	127.3	3389.3835425742
40	987380	127.4	3392.4553014813
40	988123	127.5	3395.5220391516
40	988866	127.6	3398.5874235091
40	989666	127.7	3401.6520491174
40	990409	127.8	3404.7197358417
40	991152	127.9	3407.7837354545
40	991895	128	3410.851363448
40	992638	128.1	3413.9171902386
40	993381	128.2	3416.9871072431
40	994124	128.3	3420.0584219162
40	994867	128.4	3423.1208172264
40	995610	128.5	3426.1910664187
40	996353	128.6	3429.2637454695
40	997153	128.7	3432.3343843319
40	997896	128.8	3435.4003342571
40	998639	128.9	3438.4644402124
40	999374	129	3441.5300540424
40	1000109	129.1	3444.5943226333
40	1000844	129.2	3447.6676079239
40	1001579	129.3	3450.7375274685
40	1002314	129.4	3453.8103504965
40	1003049	129.5	3456.8772686531
40	1003784	129.6	3459.9490332814
40	1004576	129.7	3463.0177097414
40	1005311	129.8	3466.0882809412
40	1006046	129.9	3469.1605914748
40	1006781	130	3472.2293929696
40	1007516	130.1	3475.3028695353
40	1008251	130.2	3478.3678733759
40	1008986	130.3	3481.4340015874
40	1009721	130.4	3484.5042039036
40	1010456	130.5	3487.5706835259
40	1011191	130.6	3490.6383713418
40	1011983	130.7	3493.704297933
40	1012718	130.8	3496.7723628173
40	1013453	130.9	3499.8417114557
40	1014188	131	3502.9043831268
40	1014923	131.1	3505.968957564
40	1015658	131.2	3509.0320971614
40	1016393	131.3	3512.0937819877
40	1017128	131.4	3515.1588123016
40	1017863	131.5	3518.2298668339
40	1018598	131.6	3521.2924383754
40	1019390	131.7	3524.3542970912
40	1020125	131.8	3527.4279207116
40	1020860	131.9	3530.4969647762
40	1021595	132	3533.5698844927
40	1022330	132.1	3536.6330512592
40	1023065	132.2	3539.6997901615
40	1023800	132.3	3542.7668830689
40	1024535	132.4	3545.8309087066
40	1025270	132.5	3548.898677959
40	1026005	132.6	3551.9699246107
40	1026797	132.7	3555.0367861572
40	1027532	132.8	3558.1013033045
40	1028267	132.9	3561.1660000036
40	1029002	133	3564.2341119283
40	1029737	133.1	3567.3070758704
40	1030472	133.2	3570.3751072978
40	1031207	133.3	3573.4398758166
40	1031942	133.4	3576.502953182
40	1032677	133.5	3579.5653447769
40	1033412	133.6	3582.6308743473
40	1034204	133.7	3585.7034141681
40	1034939	133.8	3588.7702098789
40	1035674	133.9	3591.8393224392
40	1036409	134	3594.9079347339
40	1037144	134.1	3597.9788077543
40	1037879	134.2	3601.0463559451
40	1038614	134.3	3604.1112242479
40	1039349	134.4	3607.1790267161
40	1040084	134.5	3610.2434698256
40	1040819	134.6	3613.3129681131
40	1041611	134.7	3616.3768461416
40	1042346	134.8	3619.4410638629
40	1043081	134.9	3622.512659729
40	1043816	135	3625.5844161186
40	1044551	135.1	3628.6469296185
40	1045286	135.2	3631.720550072
40	1046021	135.3	3634.7931658683
40	1046756	135.4	3637.8577808643
40	1047491	135.5	3640.929009007
40	1048226	135.6	3643.9939485805
40	1049018	135.7	3647.0627831476
40	1049753	135.8	3650.1344781324
40	1050488	135.9	3653.2050457337
40	1051223	136	3656.2780344743
40	1051958	136.1	3659.3455747512
40	1052693	136.2	3662.4141503593
40	1053428	136.3	3665.4825254149
40	1054163	136.4	3668.5504632783
40	1054898	136.5	3671.6121579276
40	1055633	136.6	3674.6842069784
40	1056425	136.7	3677.7492417706
40	1057160	136.8	3680.8229085847
40	1057895	136.9	3683.88913457
40	1058630	137	3686.9599307643
40	1059365	137.1	3690.0277830334
40	1060100	137.2	3693.0996251707
40	1060835	137.3	3696.1642913552
40	1061570	137.4	3699.2281244679
40	1062305	137.5	3702.2964803165
40	1063040	137.6	3705.3704025104
40	1063832	137.7	3708.4394280525
40	1064567	137.8	3711.5035466177
40	1065302	137.9	3714.5707248697
40	1066037	138	3717.6428046134
40	1066772	138.1	3720.7101125994
40	1067507	138.2	3723.7803061162
40	1068242	138.3	3726.8419474356
40	1068977	138.4	3729.915391829
40	1069712	138.5	3732.9830535574
40	1070447	138.6	3736.0512070849
40	1071239	138.7	3739.1201868211
40	1071974	138.8	3742.1853959702
40	1072709	138.9	3745.2581332252
40	1073444	139	3748.32859794
40	1074179	139.1	3751.3959368602
40	1074914	139.2	3754.4602666239
40	1075649	139.3	3757.5289861986
40	1076384	139.4	3760.5922779815
40	1077119	139.5	3763.6582213519
40	1077854	139.6	3766.7289786725
40	1078646	139.7	3769.7968219197
40	1079381	139.8	3772.8684546885
40	1080116	139.9	3775.9340747042
40	1080851	140	3779.0031086861
40	1081586	140.1	3782.0737382203
40	1082321	140.2	3785.1401543982
40	1083056	140.3	3788.206271927
40	1083791	140.4	3791.2784083547
40	1084526	140.5	3794.3402101456
40	1085261	140.6	3797.4034977275
40	1086053	140.7	3800.4731208795
40	1086788	140.8	3803.5407989418
40	1087523	140.9	3806.6045124443
40	1088258	141	3809.667951911
40	1088993	141.1	3812.7416250271
40	1089728	141.2	3815.8047191823
40	1090463	141.3	3818.8763978218
40	1091198	141.4	3821.9452765886
40	1091933	141.5	3825.0154537615
40	1092668	141.6	3828.0845849854
40	1093460	141.7	3831.158420863
40	1094195	141.8	3834.2295881453
40	1094930	141.9	3837.3027731563
40	1095665	142	3840.3649320071
40	1096400	142.1	3843.4266261575
40	1097135	142.2	3846.4924742574
40	1097870	142.3	3849.5605078155
40	1098605	142.4	3852.6301483124
40	1099340	142.5	3855.6980988347
40	1100075	142.6	3858.7699291556
40	1100867	142.7	3861.8375641806
40	1101602	142.8	3864.9089061241
40	1102337	142.9	3867.9761079167
40	1103072	143	3871.0425795928
40	1103807	143.1	3874.1089938219
40	1104542	143.2	3877.1718996243
40	1105277	143.3	3880.244435288
40	1106012	143.4	3883.307557947
40	1106747	143.5	3886.3767227409
40	1107482	143.6	3889.4472824198
40	1108274	143.7	3892.5175386892
40	1109009	143.8	3895.5800820643
40	1109744	143.9	3898.6539449854
40	1110479	144	3901.7223077883
40	1111214	144.1	3904.7884251268
40	1111949	144.2	3907.8568142085
40	1112684	144.3	3910.9194493535
40	1113419	144.4	3913.9888757146
40	1114154	144.5	3917.0585821034
40	1114889	144.6	3920.1304449714
40	1115681	144.7	3923.1973358046
40	1116416	144.8	3926.2710811519
40	1117151	144.9	3929.333158917
40	1117886	145	3932.4040678898
40	1118621	145.1	3935.4683946515
40	1119356	145.2	3938.5321771167
40	1120091	145.3	3941.5938003606
40	1120826	145.4	3944.6591337451
40	1121561	145.5	3947.7320163751
40	1122296	145.6	3950.7962166604
40	1123088	145.7	3953.8685282038
40	1123823	145.8	3956.9363318794
40	1124558	145.9	3960.0016109958
40	1125293	146	3963.0716163016
40	1126028	146.1	3966.1356222134
40	1126763	146.2	3969.2061635881
40	1127498	146.3	3972.2705898299
40	1128233	146.4	3975.3354726176
40	1128968	146.5	3978.4046758391
40	1129703	146.6	3981.4671690974
40	1130495	146.7	3984.5339304341
40	1131230	146.8	3987.6045405174
40	1131965	146.9	3990.6751596313
40	1132629	147	3993.7407384763
40	1133293	147.1	3996.8125668001
40	1133957	147.2	3999.8752978203
40	1134621	147.3	4002.9473876896
40	1135285	147.4	4006.01826192
40	1135949	147.5	4009.0844276306
40	1136613	147.6	4012.1493899068
40	1137332	147.7	4015.2167034481
40	1137996	147.8	4018.2874649849
40	1138660	147.9	4021.3552501107
40	1139324	148	4024.4283781773
40	1139988	148.1	4027.4926701854
40	1140652	148.2	4030.5597318385
40	1141316	148.3	4033.6290812341
40	1141980	148.4	4036.7004563031
40	1142644	148.5	4039.7727196875
40	1143308	148.6	4042.8458100982
40	1144027	148.7	4045.9115143606
40	1144691	148.8	4048.9844988347
40	1145355	148.9	4052.0552542752
40	1146019	149	4055.1271370558
40	1146683	149.1	4058.1888127439
40	1147347	149.2	4061.2623727696
40	1148011	149.3	4064.3281590793
40	1148675	149.4	4067.3933228132
40	1149280	149.5	4070.465833464
40	1149885	149.6	4073.5392138303
40	1150543	149.7	4076.6123292137
40	1151148	149.8	4079.6849357733
40	1151753	149.9	4082.7497215556
40	1152358	150	4085.8179543708
40	1152963	150.1	4088.8862625688
40	1153568	150.2	4091.9480625117
40	1154173	150.3	4095.0209460639
40	1154778	150.4	4098.092458397
40	1155383	150.5	4101.1569933954
40	1155988	150.6	4104.229907072
40	1156646	150.7	4107.3025514444
40	1157251	150.8	4110.3662103765
40	1157856	150.9	4113.4383376933
40	1158461	151	4116.5116822929
40	1159066	151.1	4119.5800609581
40	1159671	151.2	4122.6505634061
40	1160276	151.3	4125.7198194011
40	1160881	151.4	4128.7879588839
40	1161486	151.5	4131.8540594866
40	1162091	151.6	4134.9228113512
40	1162749	151.7	4137.993528487
40	1163354	151.8	4141.0552669217
40	1163959	151.9	4144.1178907808
40	1164564	152	4147.1862274896
40	1165169	152.1	4150.2479332299
40	1165774	152.2	4153.320775221
40	1166379	152.3	4156.3877415762
40	1166984	152.4	4159.4604769162
40	1167589	152.5	4162.5321415867
40	1168194	152.6	4165.6043829242
40	1168803	152.7	4168.6742651553
40	1169361	152.8	4171.7466151702
40	1169919	152.9	4174.8198875899
40	1170477	153	4177.8827796876
40	1171035	153.1	4180.9505562236
40	1171593	153.2	4184.0237396022
40	1172151	153.3	4187.0867526056
40	1172709	153.4	4190.1523244495
40	1173267	153.5	4193.2177996614
40	1173825	153.6	4196.2850920763
40	1174434	153.7	4199.346922047
40	1174992	153.8	4202.4140304892
40	1175550	153.9	4205.4804739927
40	1176108	154	4208.5473819207
40	1176666	154.1	4211.6183162403
40	1177224	154.2	4214.6865556501
40	1177782	154.3	4217.75787522
40	1178340	154.4	4220.8301608276
40	1178898	154.5	4223.8952812947
40	1179456	154.6	4226.9581840617
40	1180065	154.7	4230.029909729
40	1180623	154.8	4233.0928041668
40	1181181	154.9	4236.1602271862
40	1181739	155	4239.2224701955
40	1182297	155.1	4242.2948414228
40	1182855	155.2	4245.3622799409
40	1183413	155.3	4248.4343467529
40	1183971	155.4	4251.5025222049
40	1184529	155.5	4254.5698324909
40	1185087	155.6	4257.6355627982
40	1185696	155.7	4260.7015772015
40	1186254	155.8	4263.770152374
40	1186812	155.9	4266.8376865347
40	1187370	156	4269.9062690105
40	1187928	156.1	4272.9691938313
40	1188486	156.2	4276.0321393006
40	1189044	156.3	4279.1006563226
40	1189602	156.4	4282.1629743609
40	1190152	156.5	4285.2286029221
40	1190702	156.6	4288.2964123464
40	1191303	156.7	4291.3586637105
40	1191853	156.8	4294.4295230396
40	1192403	156.9	4297.4986810091
40	1192953	157	4300.5658854269
40	1193503	157.1	4303.6313048581
40	1194053	157.2	4306.6946664375
40	1194603	157.3	4309.760070853
40	1195153	157.4	4312.8327401024
40	1195703	157.5	4315.8976288681
40	1196253	157.6	4318.9617545632
40	1196854	157.7	4322.0282353707
40	1197404	157.8	4325.0991391672
40	1197954	157.9	4328.1658837172
40	1198504	158	4331.2338307655
40	1199054	158.1	4334.3043422193
40	1199604	158.2	4337.3709871166
40	1200154	158.3	4340.439632151
40	1200704	158.4	4343.5039939024
40	1201254	158.5	4346.5772718615
40	1201804	158.6	4349.6413987458
40	1202405	158.7	4352.7140048644
40	1202955	158.8	4355.7872078425
40	1203505	158.9	4358.8568451263
40	1204055	159	4361.9258934785
40	1204605	159.1	4364.9937719093
40	1205155	159.2	4368.0641619678
40	1205705	159.3	4371.1311239867
40	1206255	159.4	4374.2050675554
40	1206805	159.5	4377.2780470969
40	1207355	159.6	4380.3488531726
40	1207956	159.7	4383.4160705955
40	1208506	159.8	4386.4863213887
40	1209056	159.9	4389.5497774348
40	1209606	160	4392.6114568943
40	1210156	160.1	4395.6795209643
40	1210706	160.2	4398.7462583119
40	1211256	160.3	4401.8166178596
40	1211806	160.4	4404.8794001601
40	1212356	160.5	4407.9412336777
40	1212906	160.6	4411.0054593688
40	1213507	160.7	4414.0706230947
40	1214057	160.8	4417.1407114178
40	1214607	160.9	4420.2063746704
40	1215157	161	4423.2706342864
40	1215707	161.1	4426.3334341187
40	1216257	161.2	4429.3973660273
40	1216807	161.3	4432.4640876114
40	1217357	161.4	4435.532999943
40	1217907	161.5	4438.59490907
40	1218457	161.6	4441.6578630692
40	1219058	161.7	4444.721629101
40	1219608	161.8	4447.7908237876
40	1220158	161.9	4450.8548406679
40	1220708	162	4453.9180020671
40	1221258	162.1	4456.9886888279
40	1221808	162.2	4460.0545852657
40	1222358	162.3	4463.117892411
40	1222908	162.4	4466.1894874405
40	1223458	162.5	4469.2590965272
40	1224008	162.6	4472.3266370252
40	1224609	162.7	4475.3989731966
40	1225159	162.8	4478.4724553799
40	1225709	162.9	4481.5400926409
40	1226259	163	4484.6073117057
40	1226809	163.1	4487.6760200657
40	1227359	163.2	4490.7450721761
40	1227909	163.3	4493.8159550141
40	1228459	163.4	4496.8846612184
40	1229009	163.5	4499.9511116633
40	1229559	163.6	4503.0249000833
40	1230160	163.7	4506.0926013664
40	1230710	163.8	4509.1548186508
40	1231260	163.9	4512.218244576
40	1231810	164	4515.2832705801
40	1232360	164.1	4518.3517173533
40	1232910	164.2	4521.4164915433
40	1233460	164.3	4524.4828454648
40	1234010	164.4	4527.5457796211
40	1234560	164.5	4530.6144413194
40	1235110	164.6	4533.678320517
40	1235711	164.7	4536.7490118646
40	1236261	164.8	4539.8226910194
40	1236811	164.9	4542.89173079
40	1237361	165	4545.9545416736
40	1237911	165.1	4549.0243847868
40	1238461	165.2	4552.0956228702
40	1239011	165.3	4555.1664512599
40	1239561	165.4	4558.2306078622
40	1240111	165.5	4561.3013957897
40	1240661	165.6	4564.3662059316
40	1241262	165.7	4567.4397049921
40	1241812	165.8	4570.5108897212
40	1242362	165.9	4573.5730154811
40	1242912	166	4576.6393477677
40	1243462	166.1	4579.7015877712
40	1244012	166.2	4582.7644374272
40	1244562	166.3	4585.8336750697
40	1245112	166.4	4588.9040571533
40	1245662	166.5	4591.9685496877
40	1246212	166.6	4595.0307800564
40	1246813	166.7	4598.0960394408
40	1247363	166.8	4601.1622631586
40	1247913	166.9	4604.2341037987
40	1248463	167	4607.3072740258
40	1249013	167.1	4610.3739366937
40	1249563	167.2	4613.4404592145
40	1250113	167.3	4616.503659315
40	1250663	167.4	4619.5721546158
40	1251066	167.5	4622.6366884025
40	1251469	167.6	4625.7103312581
40	1251917	167.7	4628.7769929811
40	1252320	167.8	4631.8491983331
40	1252723	167.9	4634.9166043317
40	1252995	168	4637.9861462187
40	1253267	168.1	4641.0545835734
40	1253539	168.2	4644.1247876161
40	1253811	168.3	4647.1928908199
40	1254083	168.4	4650.2567388185
40	1254355	168.5	4653.3252197363
40	1254627	168.6	4656.3978090652
40	1254938	168.7	4659.4597241709
40	1255210	168.8	4662.5222943366
40	1255482	168.9	4665.5886128894
40	1255754	169	4668.6613517833
40	1255919	169.1	4671.7278033782
40	1256084	169.2	4674.792640248
40	1256249	169.3	4677.860016812
40	1256331	169.4	4680.9299400282
40	1256413	169.5	4684.0039576588
40	1256495	169.6	4687.0725008211
40	1256604	169.7	4690.1389783732
40	1256686	169.8	4693.2018826139
40	1256768	169.9	4696.2747770369
40	1256850	170	4699.3370086894
40	1256932	170.1	4702.4089276725
40	1257014	170.2	4705.476170146
40	1257096	170.3	4708.5482753088
40	1257178	170.4	4711.6218006795
40	1257242	170.5	4714.6853715904
40	1257306	170.6	4717.753484882
40	1257370	170.7	4720.8251103673
40	1257434	170.8	4723.8911206382
40	1257498	170.9	4726.9617228704
40	1257562	171	4730.026777381
40	1257626	171.1	4733.0974333756
40	1257690	171.2	4736.1704136559
40	1257754	171.3	4739.2421765547
40	1257818	171.4	4742.3160041959
40	1257882	171.5	4745.3822423368
40	1257946	171.6	4748.4481864572
40	1258010	171.7	4751.522155415
40	1258074	171.8	4754.5851282768
40	1258138	171.9	4757.650549911
40	1258202	172	4760.7124499053
40	1258266	172.1	4763.7850155656
40	1258330	172.2	4766.8475294634
40	1258394	172.3	4769.9196374787
40	1258458	172.4	4772.9876505596
40	1258522	172.5	4776.0510109249
40	1258586	172.6	4779.1143015541
40	1258650	172.7	4782.1879833664
40	1258714	172.8	4785.2587890072
40	1258778	172.9	4788.3220382691
40	1258842	173	4791.3860950486
40	1258906	173.1	4794.4574364177
40	1258970	173.2	4797.5227671504
40	1259034	173.3	4800.5896687575
40	1259098	173.4	4803.656022901
40	1259162	173.5	4806.7291518901
40	1259226	173.6	4809.8014679609
40	1259290	173.7	4812.868471891
40	1259354	173.8	4815.9301852245
40	1259418	173.9	4818.9922163065
40	1259449	174	4822.0592036961
40	1259480	174.1	4825.1222088161
40	1259511	174.2	4828.1918532488
40	1259542	174.3	4831.2634225138
40	1259573	174.4	4834.3309278521
40	1259604	174.5	4837.3983686415
40	1259614	174.6	4840.4610736516
40	1259624	174.7	4843.5262777832
40	1259634	174.8	4846.6002869857
40	1259644	174.9	4849.6729971481
40	1259654	175	4852.7363836605
40	1259664	175.1	4855.8082545941
40	1259674	175.2	4858.8747325561
40	1259684	175.3	4861.9428301331
40	1259694	175.4	4865.0051654824
40	1259704	175.5	4868.0731383598
40	1259714	175.6	4871.1379040662
40	1259724	175.7	4874.2085486359
40	1259734	175.8	4877.2780512984
40	1259744	175.9	4880.3473425117
40	1259754	176	4883.4134884278
40	1259764	176.1	4886.4805989602
40	1259774	176.2	4889.55005837
40	1259784	176.3	4892.6201840682
40	1259794	176.4	4895.6827454052
40	1259804	176.5	4898.7525231933
40	1259814	176.6	4901.8263580394
40	1259824	176.7	4904.8938884898
40	1259834	176.8	4907.9610345187
40	1259844	176.9	4911.0250235028
40	1259854	177	4914.092762766
40	1259864	177.1	4917.1585476724
40	1259874	177.2	4920.2302518335
40	1259884	177.3	4923.3022640941
40	1259894	177.4	4926.3709931664
40	1259904	177.5	4929.4424542034
40	1259914	177.6	4932.5128239586
40	1259924	177.7	4935.5855622415
40	1259934	177.8	4938.6512630241
40	1259944	177.9	4941.7156317836
40	1259954	178	4944.7802985801
40	1259964	178.1	4947.8444010236
40	1259974	178.2	4950.9088394831
40	1259984	178.3	4953.9749702674
40	1259994	178.4	4957.0441217739
40	1260004	178.5	4960.1132591299
40	1260014	178.6	4963.1849476686
40	1260024	178.7	4966.2488520891
40	1260034	178.8	4969.3192573684
40	1260044	178.9	4972.3853550121
40	1260054	179	4975.4527517413
40	1260064	179.1	4978.5228182681
40	1260074	179.2	4981.5892078911
40	1260084	179.3	4984.6587862465
40	1260094	179.4	4987.7229312399
40	1260104	179.5	4990.7955058361
40	1260114	179.6	4993.8605900368
40	1260124	179.7	4996.9318254682
40	1260134	179.8	5000.00372675
40	1260144	179.9	5003.0691291695
40	1260154	180	5006.1339101877
40	1260164	180.1	5009.2059215198
40	1260174	180.2	5012.2785635416
40	1260184	180.3	5015.349731753
40	1260194	180.4	5018.4123407277
40	1260204	180.5	5021.4838959812

